 
data_im1704
 
_audit_creation_method            SHELXL-2013
_chemical_name_systematic
;
 ?
;
_chemical_name_common             ?
_chemical_melting_point           ?
_chemical_formula_moiety          ?
_chemical_formula_sum
 'C28 H50 O8 S2 Sn2' 
_chemical_formula_weight          816.18

loop_
 _atom_type_symbol
 _atom_type_description
 _atom_type_scat_dispersion_real
 _atom_type_scat_dispersion_imag
 _atom_type_scat_source
 'C'  'C'   0.0181   0.0091
 'International Tables Vol C Tables 4.2.6.8 and 6.1.1.4'
 'H'  'H'   0.0000   0.0000
 'International Tables Vol C Tables 4.2.6.8 and 6.1.1.4'
 'O'  'O'   0.0492   0.0322
 'International Tables Vol C Tables 4.2.6.8 and 6.1.1.4'
 'S'  'S'   0.3331   0.5567
 'International Tables Vol C Tables 4.2.6.8 and 6.1.1.4'
 'Sn'  'Sn'   0.0259   5.4591
 'International Tables Vol C Tables 4.2.6.8 and 6.1.1.4'
 
_space_group_crystal_system       monoclinic
_space_group_IT_number            14
_space_group_name_H-M_alt         'P 21/n'
_space_group_name_Hall            '-P 2yn'
 
_shelx_space_group_comment
;
The symmetry employed for this shelxl refinement is uniquely defined
by the following loop, which should always be used as a source of
symmetry information in preference to the above space-group names.
They are only intended as comments.
;
 
loop_
 _space_group_symop_operation_xyz
 'x, y, z'
 '-x+1/2, y+1/2, -z+1/2'
 '-x, -y, -z'
 'x-1/2, -y-1/2, z-1/2'
 
_cell_length_a                    7.00588(12)
_cell_length_b                    14.0253(3)
_cell_length_c                    18.0156(3)
_cell_angle_alpha                 90
_cell_angle_beta                  97.7113(16)
_cell_angle_gamma                 90
_cell_volume                      1754.20(6)
_cell_formula_units_Z             2
_cell_measurement_temperature     293(2)
_cell_measurement_reflns_used     ? 
_cell_measurement_theta_min       ? 
_cell_measurement_theta_max       ? 
 
_exptl_crystal_description        ? 
_exptl_crystal_colour             ? 
_exptl_crystal_density_meas       ? 
_exptl_crystal_density_method     ?              
_exptl_crystal_density_diffrn     1.545          
_exptl_crystal_F_000              828
_exptl_transmission_factor_min    ?                                             
_exptl_transmission_factor_max    ?                                             
_exptl_crystal_size_max           ? 
_exptl_crystal_size_mid           ? 
_exptl_crystal_size_min           ? 
_exptl_absorpt_coefficient_mu     12.783
_shelx_estimated_absorpt_T_min    ? 
_shelx_estimated_absorpt_T_max    ? 
_exptl_absorpt_correction_type    ? 
_exptl_absorpt_correction_T_min   ? 
_exptl_absorpt_correction_T_max   ? 
_exptl_absorpt_process_details    ? 
 
_exptl_special_details
;
 ?
;
 
_diffrn_ambient_temperature       293(2)
_diffrn_radiation_wavelength      1.54184
_diffrn_radiation_type            CuK\a
_diffrn_source                    ?                       
_diffrn_measurement_device_type   ? 
_diffrn_measurement_method        ? 
_diffrn_detector_area_resol_mean  ? 
_diffrn_reflns_number             5786
_diffrn_reflns_av_unetI/netI      0.0489
_diffrn_reflns_av_R_equivalents   0.0369
_diffrn_reflns_limit_h_min        -8
_diffrn_reflns_limit_h_max        8
_diffrn_reflns_limit_k_min        -16
_diffrn_reflns_limit_k_max        10
_diffrn_reflns_limit_l_min        -22
_diffrn_reflns_limit_l_max        18
_diffrn_reflns_theta_min          4.008
_diffrn_reflns_theta_max          73.678
_diffrn_reflns_theta_full         67.684
_diffrn_measured_fraction_theta_max   0.952
_diffrn_measured_fraction_theta_full  0.982
_diffrn_reflns_Laue_measured_fraction_max    0.952
_diffrn_reflns_Laue_measured_fraction_full   0.982
_diffrn_reflns_point_group_measured_fraction_max   0.952
_diffrn_reflns_point_group_measured_fraction_full  0.982
_reflns_number_total              3378
_reflns_number_gt                 2891
_reflns_threshold_expression      'I > 2\s(I)'
_reflns_Friedel_coverage          0.000
_reflns_Friedel_fraction_max      .
_reflns_Friedel_fraction_full     .
 
_reflns_special_details
;
 Reflections were merged by SHELXL according to the crystal
 class for the calculation of statistics and refinement.
 
 _reflns_Friedel_fraction is defined as the number of unique
 Friedel pairs measured divided by the number that would be
 possible theoretically, ignoring centric projections and
 systematic absences.
;
 
_computing_data_collection        ?
_computing_cell_refinement        ?
_computing_data_reduction         ?
_computing_structure_solution     ?
_computing_structure_refinement   'SHELXL-2013 (Sheldrick, 2013)'
_computing_molecular_graphics     ?
_computing_publication_material   ?
 
_refine_special_details
;
 ?
;
_refine_ls_structure_factor_coef  Fsqd
_refine_ls_matrix_type            full
_refine_ls_weighting_scheme       calc
_refine_ls_weighting_details
'w=1/[\s^2^(Fo^2^)+(0.0865P)^2^] where P=(Fo^2^+2Fc^2^)/3'
_atom_sites_solution_primary      ?
_atom_sites_solution_secondary    ?
_atom_sites_solution_hydrogens    geom
_refine_ls_hydrogen_treatment     constr
_refine_ls_extinction_method      none
_refine_ls_extinction_coef        .
_refine_ls_number_reflns          3378
_refine_ls_number_parameters      185
_refine_ls_number_restraints      0
_refine_ls_R_factor_all           0.0591
_refine_ls_R_factor_gt            0.0520
_refine_ls_wR_factor_ref          0.1363
_refine_ls_wR_factor_gt           0.1273
_refine_ls_goodness_of_fit_ref    1.087
_refine_ls_restrained_S_all       1.087
_refine_ls_shift/su_max           2.633
_refine_ls_shift/su_mean          0.034
 
loop_
 _atom_site_label
 _atom_site_type_symbol
 _atom_site_fract_x
 _atom_site_fract_y
 _atom_site_fract_z
 _atom_site_U_iso_or_equiv
 _atom_site_adp_type
 _atom_site_occupancy
 _atom_site_site_symmetry_order  
 _atom_site_calc_flag
 _atom_site_refinement_flags_posn
 _atom_site_refinement_flags_adp
 _atom_site_refinement_flags_occupancy
 _atom_site_disorder_assembly
 _atom_site_disorder_group
Sn1 Sn 0.79124(4) 0.84290(2) 0.96599(2) 0.01331(15) Uani 1 1 d . . . . .
S2 S 0.53027(17) 0.65671(7) 1.01254(7) 0.0104(3) Uani 1 1 d . . . . .
O13 O 0.4772(5) 0.2176(3) 0.7044(2) 0.0234(8) Uani 1 1 d . . . . .
O10 O 0.7623(5) 0.3086(3) 0.8143(2) 0.0205(8) Uani 1 1 d . . . . .
C5 C 0.8068(6) 0.6187(3) 0.9387(3) 0.0099(9) Uani 1 1 d . . . . .
H5 H 0.9137 0.6245 0.9135 0.012 Uiso 1 1 calc R U . . .
C6 C 0.7188(7) 0.6950(4) 0.9680(3) 0.0133(10) Uani 1 1 d . . . . .
C9 C 0.9376(8) 0.3406(4) 0.8545(3) 0.0183(11) Uani 1 1 d . . . . .
H9A H 1.0393 0.3365 0.8231 0.022 Uiso 1 1 calc R U . . .
H9B H 0.9725 0.3003 0.8980 0.022 Uiso 1 1 calc R U . . .
C3 C 0.5619(6) 0.5379(3) 0.9902(2) 0.0066(8) Uani 1 1 d . . . . .
O16 O 0.2068(7) 0.0613(4) 0.7456(3) 0.0458(14) Uani 1 1 d . . . . .
C8 C 0.9167(7) 0.4414(4) 0.8790(3) 0.0148(10) Uani 1 1 d . . . . .
H8A H 1.0382 0.4647 0.9048 0.018 Uiso 1 1 calc R U . . .
H8B H 0.8781 0.4819 0.8360 0.018 Uiso 1 1 calc R U . . .
C15 C 0.1849(8) 0.1184(4) 0.6798(3) 0.0233(12) Uani 1 1 d . . . . .
H15A H 0.0491 0.1254 0.6613 0.028 Uiso 1 1 calc R U . . .
H15B H 0.2467 0.0873 0.6412 0.028 Uiso 1 1 calc R U . . .
C12 C 0.5671(9) 0.1766(5) 0.7718(4) 0.0292(13) Uani 1 1 d . . . . .
H12A H 0.5690 0.1077 0.7668 0.035 Uiso 1 1 calc R U . . .
H12B H 0.4945 0.1924 0.8123 0.035 Uiso 1 1 calc R U . . .
C18 C 0.6683(10) 0.9048(5) 1.0573(3) 0.0319(14) Uani 1 1 d . . . . .
H18A H 0.5455 0.8759 1.0606 0.048 Uiso 1 1 calc R U . . .
H18B H 0.6517 0.9721 1.0491 0.048 Uiso 1 1 calc R U . . .
H18C H 0.7526 0.8941 1.1031 0.048 Uiso 1 1 calc R U . . .
C14 C 0.2724(8) 0.2144(4) 0.6960(3) 0.0252(12) Uani 1 1 d . . . . .
H14A H 0.2226 0.2573 0.6558 0.030 Uiso 1 1 calc R U . . .
H14B H 0.2305 0.2383 0.7417 0.030 Uiso 1 1 calc R U . . .
C11 C 0.7691(8) 0.2131(4) 0.7896(3) 0.0253(12) Uani 1 1 d . . . . .
H11A H 0.8402 0.1743 0.8284 0.030 Uiso 1 1 calc R U . . .
H11B H 0.8340 0.2099 0.7454 0.030 Uiso 1 1 calc R U . . .
C19 C 1.0984(9) 0.8534(5) 0.9805(4) 0.0371(16) Uani 1 1 d . . . . .
H19A H 1.1530 0.7990 1.0079 0.056 Uiso 1 1 calc R U . . .
H19B H 1.1374 0.9105 1.0079 0.056 Uiso 1 1 calc R U . . .
H19C H 1.1426 0.8555 0.9324 0.056 Uiso 1 1 calc R U . . .
C20 C 0.6724(10) 0.9075(5) 0.8621(3) 0.0319(14) Uani 1 1 d . . . . .
H20A H 0.7281 0.8786 0.8217 0.048 Uiso 1 1 calc R U . . .
H20B H 0.7004 0.9745 0.8637 0.048 Uiso 1 1 calc R U . . .
H20C H 0.5354 0.8982 0.8544 0.048 Uiso 1 1 calc R U . . .
C17 C 0.1052(11) -0.0250(5) 0.7353(5) 0.0472(19) Uani 1 1 d . . . . .
H17A H 0.1447 -0.0587 0.6936 0.071 Uiso 1 1 calc R U . . .
H17B H -0.0304 -0.0120 0.7256 0.071 Uiso 1 1 calc R U . . .
H17C H 0.1317 -0.0632 0.7797 0.071 Uiso 1 1 calc R U . . .
O7 O 0.7724(5) 0.4424(2) 0.9284(2) 0.0152(7) Uani 1 1 d . . . . .
C4 C 0.7185(6) 0.5310(3) 0.9509(2) 0.0086(9) Uani 1 1 d . . . . .
 
loop_
 _atom_site_aniso_label
 _atom_site_aniso_U_11
 _atom_site_aniso_U_22
 _atom_site_aniso_U_33
 _atom_site_aniso_U_23
 _atom_site_aniso_U_13
 _atom_site_aniso_U_12
Sn1 0.0247(2) 0.0008(2) 0.0156(2) 0.00047(10) 0.00696(14) -0.00615(11)
S2 0.0171(6) 0.0000(5) 0.0157(6) -0.0012(4) 0.0075(4) -0.0030(4)
O13 0.0262(19) 0.029(2) 0.0151(17) -0.0050(17) 0.0044(14) -0.0056(17)
O10 0.0189(18) 0.011(2) 0.029(2) -0.0096(16) -0.0046(15) 0.0018(14)
C5 0.013(2) 0.004(2) 0.015(2) 0.0001(17) 0.0079(16) -0.0028(17)
C6 0.016(2) 0.007(2) 0.017(2) -0.0005(19) 0.0034(17) -0.0068(19)
C9 0.016(2) 0.015(3) 0.024(3) -0.007(2) 0.004(2) -0.0016(19)
C3 0.0109(19) 0.000(2) 0.0088(19) -0.0007(16) 0.0012(15) -0.0027(17)
O16 0.056(3) 0.041(3) 0.034(3) 0.012(2) -0.019(2) -0.029(2)
C8 0.015(2) 0.014(3) 0.018(2) -0.004(2) 0.0090(18) -0.0027(19)
C15 0.019(3) 0.029(3) 0.020(3) -0.006(2) -0.001(2) 0.002(2)
C12 0.038(3) 0.019(3) 0.028(3) -0.001(3) -0.005(3) -0.005(3)
C18 0.055(4) 0.018(3) 0.027(3) -0.006(3) 0.022(3) -0.006(3)
C14 0.027(3) 0.024(3) 0.026(3) -0.002(2) 0.006(2) 0.006(2)
C11 0.028(3) 0.010(3) 0.035(3) -0.008(2) -0.006(2) 0.001(2)
C19 0.030(3) 0.031(4) 0.052(4) 0.007(3) 0.009(3) -0.013(3)
C20 0.055(4) 0.021(3) 0.021(3) 0.007(2) 0.009(3) -0.001(3)
C17 0.049(4) 0.035(4) 0.055(5) 0.008(4) -0.004(3) -0.017(3)
O7 0.0220(17) 0.0043(17) 0.0226(18) -0.0031(14) 0.0152(14) -0.0033(13)
C4 0.016(2) 0.000(2) 0.010(2) 0.0017(17) 0.0020(16) -0.0016(17)
 
_geom_special_details
;
 All esds (except the esd in the dihedral angle between two l.s. planes)
 are estimated using the full covariance matrix.  The cell esds are taken
 into account individually in the estimation of esds in distances, angles
 and torsion angles; correlations between esds in cell parameters are only
 used when they are defined by crystal symmetry.  An approximate (isotropic)
 treatment of cell esds is used for estimating esds involving l.s. planes.
;
 
loop_
 _geom_bond_atom_site_label_1
 _geom_bond_atom_site_label_2
 _geom_bond_distance
 _geom_bond_site_symmetry_2
 _geom_bond_publ_flag
Sn1 C6 2.137(5) . ?
Sn1 C19 2.138(6) . ?
Sn1 C18 2.140(6) . ?
Sn1 C20 2.144(6) . ?
S2 C6 1.721(5) . ?
S2 C3 1.735(5) . ?
O13 C12 1.413(7) . ?
O13 C14 1.423(7) . ?
O10 C9 1.413(6) . ?
O10 C11 1.414(6) . ?
C5 C6 1.374(7) . ?
C5 C4 1.408(6) . ?
C9 C8 1.494(7) . ?
C3 C4 1.387(6) . ?
C3 C3 1.446(8) 3_667 ?
O16 C17 1.404(8) . ?
O16 C15 1.422(7) . ?
C8 O7 1.434(5) . ?
C15 C14 1.492(8) . ?
C12 C11 1.499(8) . ?
O7 C4 1.374(6) . ?
 
loop_
 _geom_angle_atom_site_label_1
 _geom_angle_atom_site_label_2
 _geom_angle_atom_site_label_3
 _geom_angle
 _geom_angle_site_symmetry_1
 _geom_angle_site_symmetry_3
 _geom_angle_publ_flag
C6 Sn1 C19 107.6(2) . . ?
C6 Sn1 C18 105.1(2) . . ?
C19 Sn1 C18 112.3(3) . . ?
C6 Sn1 C20 111.0(2) . . ?
C19 Sn1 C20 110.2(3) . . ?
C18 Sn1 C20 110.5(3) . . ?
C6 S2 C3 93.5(2) . . ?
C12 O13 C14 113.9(4) . . ?
C9 O10 C11 113.5(4) . . ?
C6 C5 C4 113.1(4) . . ?
C5 C6 S2 110.4(4) . . ?
C5 C6 Sn1 129.0(4) . . ?
S2 C6 Sn1 120.6(3) . . ?
O10 C9 C8 109.8(4) . . ?
C4 C3 C3 127.9(5) . 3_667 ?
C4 C3 S2 108.7(3) . . ?
C3 C3 S2 123.4(5) 3_667 . ?
C17 O16 C15 112.3(5) . . ?
O7 C8 C9 107.4(4) . . ?
O16 C15 C14 110.4(4) . . ?
O13 C12 C11 110.1(5) . . ?
O13 C14 C15 115.6(5) . . ?
O10 C11 C12 108.7(5) . . ?
C4 O7 C8 115.9(4) . . ?
O7 C4 C3 118.8(4) . . ?
O7 C4 C5 126.9(4) . . ?
C3 C4 C5 114.3(4) . . ?
 
_refine_diff_density_max    0.753
_refine_diff_density_min   -2.947
_refine_diff_density_rms    0.290

_shelxl_version_number 2013-4

_shelx_res_file
;
TITL IM1704 in P21/n #14
CELL 1.54184 7.00588 14.02534 18.0156 90 97.7113 90
ZERR 2 0.00012 0.00026 0.00033 0 0.0016 0
LATT 1
SYMM 0.5-X,0.5+Y,0.5-Z

SFAC C H O S Sn
UNIT 56 100 16 4 4

L.S. 4
PLAN  20
REM reset to P21/n #14
BOND
fmap 2
acta
REM <HKL>D:/X-Ray%20Data/New/IM1704/struct/olex2_IM1704/IM1704.hkl</HKL>

WGHT    0.086500
FVAR       5.54090
SN1   5    0.791243    0.842896    0.965994    11.00000    0.02471    0.00079 =
         0.01559    0.00047    0.00696   -0.00615
S2    4    0.530267    0.656709    1.012545    11.00000    0.01710   -0.00003 =
         0.01571   -0.00119    0.00745   -0.00300
O13   3    0.477241    0.217623    0.704370    11.00000    0.02621    0.02930 =
         0.01510   -0.00497    0.00440   -0.00565
O10   3    0.762327    0.308644    0.814273    11.00000    0.01891    0.01135 =
         0.02922   -0.00958   -0.00464    0.00181
C5    1    0.806837    0.618745    0.938740    11.00000    0.01328    0.00354 =
         0.01455    0.00009    0.00786   -0.00283
AFIX  43
H5    2    0.913748    0.624522    0.913542    11.00000   -1.20000
AFIX   0
C6    1    0.718787    0.694985    0.967961    11.00000    0.01573    0.00733 =
         0.01722   -0.00047    0.00340   -0.00682
C9    1    0.937625    0.340569    0.854548    11.00000    0.01586    0.01536 =
         0.02412   -0.00732    0.00405   -0.00158
AFIX  23
H9A   2    1.039330    0.336502    0.823074    11.00000   -1.20000
H9B   2    0.972506    0.300256    0.898002    11.00000   -1.20000
AFIX   0
C3    1    0.561898    0.537922    0.990185    11.00000    0.01089    0.00006 =
         0.00884   -0.00071    0.00121   -0.00267
O16   3    0.206840    0.061298    0.745584    11.00000    0.05597    0.04073 =
         0.03384    0.01241   -0.01861   -0.02905
C8    1    0.916681    0.441362    0.879042    11.00000    0.01465    0.01399 =
         0.01750   -0.00435    0.00905   -0.00267
AFIX  23
H8A   2    1.038154    0.464693    0.904818    11.00000   -1.20000
H8B   2    0.878107    0.481870    0.835999    11.00000   -1.20000
AFIX   0
C15   1    0.184897    0.118423    0.679788    11.00000    0.01939    0.02930 =
         0.02030   -0.00610   -0.00057    0.00154
AFIX  23
H15A  2    0.049092    0.125398    0.661271    11.00000   -1.20000
H15B  2    0.246738    0.087333    0.641238    11.00000   -1.20000
AFIX   0
C12   1    0.567112    0.176596    0.771758    11.00000    0.03818    0.01859 =
         0.02830   -0.00053   -0.00473   -0.00457
AFIX  23
H12A  2    0.568982    0.107749    0.766783    11.00000   -1.20000
H12B  2    0.494520    0.192365    0.812307    11.00000   -1.20000
AFIX   0
C18   1    0.668327    0.904777    1.057264    11.00000    0.05548    0.01765 =
         0.02718   -0.00640    0.02203   -0.00598
AFIX 137
H18A  2    0.545524    0.875905    1.060591    11.00000   -1.50000
H18B  2    0.651735    0.972073    1.049057    11.00000   -1.50000
H18C  2    0.752574    0.894118    1.103092    11.00000   -1.50000
AFIX   0
C14   1    0.272415    0.214396    0.696042    11.00000    0.02731    0.02357 =
         0.02552   -0.00231    0.00635    0.00632
AFIX  23
H14A  2    0.222619    0.257265    0.655802    11.00000   -1.20000
H14B  2    0.230470    0.238331    0.741712    11.00000   -1.20000
AFIX   0
C11   1    0.769112    0.213126    0.789590    11.00000    0.02823    0.00992 =
         0.03496   -0.00801   -0.00578    0.00137
AFIX  23
H11A  2    0.840208    0.174264    0.828414    11.00000   -1.20000
H11B  2    0.833990    0.209937    0.745355    11.00000   -1.20000
AFIX   0
C19   1    1.098383    0.853425    0.980534    11.00000    0.02979    0.03085 =
         0.05175    0.00657    0.00918   -0.01327
AFIX 137
H19A  2    1.153005    0.798976    1.007873    11.00000   -1.50000
H19B  2    1.137432    0.910480    1.007873    11.00000   -1.50000
H19C  2    1.142649    0.855546    0.932388    11.00000   -1.50000
AFIX   0
C20   1    0.672352    0.907459    0.862116    11.00000    0.05523    0.02095 =
         0.02057    0.00659    0.00938   -0.00066
AFIX 137
H20A  2    0.728098    0.878601    0.821743    11.00000   -1.50000
H20B  2    0.700373    0.974486    0.863721    11.00000   -1.50000
H20C  2    0.535355    0.898195    0.854376    11.00000   -1.50000
AFIX   0
C17   1    0.105173   -0.024964    0.735299    11.00000    0.04852    0.03522 =
         0.05478    0.00765   -0.00447   -0.01695
AFIX 137
H17A  2    0.144713   -0.058679    0.693563    11.00000   -1.50000
H17B  2   -0.030442   -0.012021    0.725613    11.00000   -1.50000
H17C  2    0.131709   -0.063192    0.779686    11.00000   -1.50000
AFIX   0
O7    3    0.772352    0.442421    0.928424    11.00000    0.02199    0.00429 =
         0.02263   -0.00313    0.01524   -0.00334
C4    1    0.718483    0.530953    0.950885    11.00000    0.01614   -0.00050 =
         0.01021    0.00174    0.00205   -0.00163
HKLF 4

REM  IM1704 in P21/n #14
REM R1 =  0.0520 for    2891 Fo > 4sig(Fo)  and  0.0591 for all    3378 data
REM    185 parameters refined using      0 restraints

END

WGHT      0.0865      0.0000

REM Highest difference peak  0.753,  deepest hole -2.947,  1-sigma level  0.290
Q1    1   0.7935  0.7569  0.9165  11.00000  0.05    0.75
Q2    1   0.9206  0.7002  0.9161  11.00000  0.05    0.72
Q3    1   0.7911  0.7669  1.0107  11.00000  0.05    0.72
Q4    1   0.7513  0.6609  0.8582  11.00000  0.05    0.71
Q5    1   0.9453  0.8423  0.9829  11.00000  0.05    0.66
Q6    1   1.0243  1.0008  1.0501  11.00000  0.05    0.65
Q7    1  -0.1451  0.1810  0.6391  11.00000  0.05    0.63
Q8    1   0.4865  1.0410  0.8599  11.00000  0.05    0.62
Q9    1   0.8176  0.9189  1.0185  11.00000  0.05    0.61
Q10   1   0.8123  0.1276  0.6780  11.00000  0.05    0.61
Q11   1   1.0774  1.0169  0.9847  11.00000  0.05    0.60
Q12   1  -0.0727  0.1641  0.6026  11.00000  0.05    0.59
Q13   1   0.3812 -0.0394  0.6818  11.00000  0.05    0.58
Q14   1   0.9291  0.9633  0.9212  11.00000  0.05    0.57
Q15   1   0.5188  0.7964  1.0588  11.00000  0.05    0.56
Q16   1   0.8332  0.9476  0.9420  11.00000  0.05    0.56
Q17   1   0.5715  0.5834  1.0798  11.00000  0.05    0.56
Q18   1   1.0991  0.1881  0.8248  11.00000  0.05    0.56
Q19   1   0.5778  0.9883  0.8814  11.00000  0.05    0.56
Q20   1  -0.1348  0.1230  0.6625  11.00000  0.05    0.56
;
_shelx_res_checksum   32623

_shelx_hkl_file
;
   0   0   2 571904. 3441.24   1
   0   0   2 567703. 5202.50   7
   0   0   3 318.018 327.529   7
   0   0   3 129.347 161.142   1
   0   0   4 952039. 9222.99   7
   0   0   4 974960. 6299.09   1
   0   0   5 152.419 452.563   7
   0   0   5 237.583 241.104   1
   0   0   6 263205. 4118.64   1
   0   0   6 266302. 5779.80   7
   0   0   7 1004.20 522.423   7
   0   0   7 141.183 221.985   1
   0   0   8 24466.3 2030.97   7
   0   0   8 16968.4 1271.20   1
   0   0   9 839.149 401.250   7
   0   0  10 134108. 5230.53   7
   0   0 -13-2542.83 1620.34   5
   0   0 -13-2401.33 1652.98   4
   0   0 -14 188527. 10093.1   5
   0   0 -14 214484. 10884.9   4
   0   0 -15-1412.98 1807.32   5
   0   0 -16 79339.8 6906.04   5
   0   0 -17 485.660 1529.08   5
   0   0 -18 123391. 8098.46   5
   0   0 -19 1532.08 1273.67   5
   0   0 -20 13727.5 2283.67   5
   0   0 -21 1506.56 791.849   5
   0  -1   1 5954.90 668.091   7
   0  -1   2 101299. 2103.81   1
   0  -1   2 83691.2 2606.18   7
   0  -1   3 149668. 2747.01   1
   0   1   3 150411. 2305.25   7
   0  -1   4 346214. 4529.63   1
   0   1   4 353046. 4390.08   7
   0  -1   5 1486.61 415.919   1
   0  -1   5 1427.49 791.173   7
   0   1   5 1433.96 373.239   7
   0   1   5 2240.98 417.218   1
   0  -1   6 513737. 6644.62   1
   0   1   6 528236. 6047.86   1
   0  -1   6 534526. 9271.82   7
   0   1   6 532005. 7013.70   7
   0  -1   7 7209.46 1190.67   7
   0   1   7 6654.31 722.724   1
   0   1   7 9072.86 1059.85   7
   0  -1   7 7533.38 945.138   1
   0   1   8 488811. 7909.71   7
   0  -1   8 469119. 9683.60   7
   0   1   8 463893. 6230.69   1
   0  -1   9 37129.3 2909.95   7
   0  -1   9 35244.7 2191.30   1
   0  -1  10 242064. 7677.75   7
   0  -1  11 171436. 6735.51   7
   0  -1  12 89315.2 5022.37   7
   0  -1 -13 137728. 8563.74   5
   0   1 -13 130672. 8771.68   4
   0   1 -13 141827. 8307.63   5
   0  -1 -14 5551.91 2011.28   5
   0   1 -14 4254.68 1985.50   5
   0   1 -14 8871.26 2385.45   4
   0   1 -15 129228. 8418.03   5
   0  -1 -15 137024. 8961.87   5
   0  -1 -16 26639.2 4092.84   5
   0   1 -16 27896.9 4001.10   5
   0  -1 -17 109889. 8076.22   5
   0   1 -17 110345. 7763.86   5
   0  -1 -18 136844. 8671.53   5
   0   1 -18 129252. 8127.85   5
   0  -1 -19 15573.7 2886.57   5
   0   1 -19 12716.7 2708.13   5
   0   1 -20 127126. 6686.85   5
   0  -1 -20 130272. 7194.59   5
   0  -1 -21 1514.26 1038.08   5
   0  -2   0 130467. 2933.04   7
   0  -2  -1 2182.77 339.690   7
   0  -2   1 2012.78 542.414   7
   0  -2   2 6729.66 1049.92   7
   0  -2  -2 5332.06 320.340   7
   0  -2   3 486569. 8042.38   7
   0  -2   4 174963. 4101.21   1
   0  -2   4 173541. 5247.78   7
   0   2   5 152101. 3816.55   1
   0  -2   5 138984. 5023.07   7
   0  -2   5 139211. 3870.63   1
   0  -2   6 282703. 5831.91   1
   0  -2   6 272233. 7422.07   7
   0  -2   7 559077. 11013.0   7
   0   2   7 575763. 7442.20   1
   0  -2   8 57012.4 3715.10   7
   0   2   8 59921.0 2400.95   1
   0  -2   9 621072. 12655.5   7
   0  -2  10 37207.5 3247.66   7
   0  -2  11 353642. 10429.4   7
   0  -2 -12 107037. 7221.20   5
   0  -2  12 107774. 5934.79   7
   0  -2  13 97738.3 5827.00   7
   0   2 -13 111245. 8068.01   4
   0   2 -13 111926. 7284.53   5
   0  -2 -13 105309. 7560.29   5
   0   2 -14 43954.7 5282.64   4
   0  -2 -14 40503.2 4826.65   5
   0   2 -14 45340.7 4835.72   5
   0  -2 -15 33987.1 4758.48   5
   0   2 -15 29726.7 3915.91   5
   0  -2 -16 80624.7 7103.60   5
   0   2 -16 80979.1 6585.13   5
   0  -2 -17 1946.52 1203.85   5
   0   2 -17 534.211 1272.57   5
   0  -2 -18 41174.3 5041.52   5
   0   2 -18 38094.3 4388.78   5
   0  -2 -19 41263.8 4567.30   5
   0   2 -19 41210.2 4072.07   5
   0  -2 -20 1813.19 1037.15   5
   0  -2 -21 70458.5 4552.05   5
   0  -3   0 543.319 505.530   7
   0  -3   1 387370. 6916.41   7
   0  -3  -1 355413. 5183.64   7
   0  -3  -2 1465.66 351.030   7
   0  -3   2 938.255 672.495   7
   0  -3   3 519007. 9313.24   7
   0  -3   4 5202.99 1226.86   7
   0  -3   5 27152.8 2532.76   7
   0  -3   6 4181.41 1188.97   7
   0   3   7 36166.5 2235.22   1
   0  -3   7 38843.6 3257.81   7
   0  -3   8 77740.1 4676.65   7
   0   3   8 81075.1 3207.00   1
   0  -3   9 53880.1 4041.19   7
   0  -3  10 9512.14 1926.55   7
   0  -3  11 486601. 13018.4   7
   0  -3  12 3147.39 1103.90   7
   0   3 -12 2279.57 1456.06   4
   0  -3 -12 3328.63 2019.32   5
   0  -3 -13 226234. 10275.2   6
   0   3 -13 222912. 11452.7   4
   0  -3  13 210379. 9094.75   7
   0   3 -13 226937. 10008.8   5
   0  -3 -13 234065. 11510.1   5
   0   3 -14 2365.49 1201.18   5
   0  -3 -14-12.6763 1076.70   5
   0   3 -15 382161. 13692.9   5
   0  -3 -15 374195. 15220.8   5
   0   3 -16 9602.95 2533.98   5
   0  -3 -16 4366.33 2475.44   5
   0  -3 -17 123323. 8556.17   5
   0   3 -17 110423. 7275.39   5
   0  -3 -18 349.152 659.084   5
   0   3 -18-1692.95 1189.55   5
   0  -3 -19 47279.7 4905.24   5
   0  -3 -20 10022.0 2102.71   5
   0  -3 -21 6046.60 1384.71   5
   0  -4   0 596564. 9013.55   7
   0  -4  -1 6219.29 923.818   7
   0  -4   1 6798.71 1124.93   7
   0  -4  -2 684382. 7497.90   7
   0  -4   2 733905. 11535.3   7
   0  -4  -3 191445. 2911.42   7
   0  -4   3 215896. 6650.22   7
   0  -4   4 126212. 5407.19   7
   0  -4   5 406017. 10303.0   7
   0  -4   6 177324. 7103.88   7
   0  -4   7 620658. 13687.8   7
   0   4   7 556688. 10013.6   1
   0   4   8 1458.28 558.010   1
   0  -4   8 447.614 884.213   7
   0  -4   9 533080. 13604.1   7
   0  -4  10 114552. 6576.25   7
   0  -4  11 94748.0 6193.29   7
   0  -4 -12 51378.7 5495.45   5
   0   4 -12 50945.2 5451.90   4
   0  -4  12 58153.7 4972.09   7
   0  -4 -13 176235. 10105.4   5
   0  -4  13 161638. 8422.83   7
   0  -4  14 101825. 6745.15   7
   0  -4 -14 119259. 8679.98   5
   0  -4 -15-332.579 2201.17   5
   0  -4 -16 70643.2 6654.48   5
   0  -4 -17 2540.37 1832.08   5
   0  -4 -18 43339.6 5119.34   5
   0  -4 -19 29603.6 3761.41   5
   0  -4 -20 19558.5 2669.71   5
   0  -4 -21 12794.0 1794.56   5
   0  -5   0-24.8474 566.189   7
   0  -5  -1 23481.8 1877.45   7
   0  -5   1 24408.0 2262.04   7
   0  -5  -2 161301. 4176.94   7
   0  -5   2 159588. 5938.21   7
   0  -5   3 31822.9 2920.33   7
   0  -5  -3 28898.8 1416.48   7
   0  -5   4 693016. 13686.5   7
   0  -5   5 28933.7 3056.24   7
   0  -5   6 423076. 11748.5   7
   0  -5   7 2576.02 1212.01   7
   0  -5   8 383412. 11869.0   7
   0   5   8 360990. 8669.37   1
   0  -5   9 4809.04 1401.63   7
   0  -5  10 136847. 7609.79   7
   0  -5  11 12119.9 2327.78   7
   0  -5 -11 11860.7 2643.42   5
   0  -5 -12 45208.9 5199.09   5
   0  -5  12 47177.8 4809.87   7
   0  -5  13 4075.68 1706.35   7
   0  -5 -13 1186.89 1650.28   5
   0  -5 -14 764.560 1019.22   5
   0  -5  14 6480.27 1854.13   7
   0  -5 -15 25741.2 4178.94   5
   0  -5 -16 69116.2 6601.02   5
   0  -5 -17 988.127 1442.47   5
   0  -5 -18 95199.8 7038.20   5
   0  -5 -19 1727.38 953.436   5
   0  -5 -20 138708. 6715.11   5
   0  -5 -21 5285.79 1235.81   5
   0  -6   0 920972. 13609.6   7
   0  -6   1 21053.7 2224.96   7
   0  -6  -1 20622.5 1940.88   7
   0  -6  -2 791366. 10492.6   7
   0  -6   2 895651. 15090.1   7
   0  -6   3 8044.44 1795.08   7
   0  -6   4 708928. 14886.9   7
   0  -6   5 211722. 8504.33   7
   0  -6   6 358432. 11449.6   7
   0  -6   7 184777. 8547.63   7
   0  -6   8 4033.54 1424.88   7
   0  -6   9 238080. 10268.4   7
   0  -6 -10 31743.9 4038.46   5
   0  -6  10 40939.0 4454.34   7
   0  -6  11 205501. 10141.0   7
   0  -6 -11 177742. 9818.20   5
   0  -6  12 151204. 8875.62   7
   0  -6 -12 155701. 9442.03   5
   0  -6  13 13202.5 2859.32   7
   0  -6 -13 10163.9 3323.18   5
   0  -6 -14 237892. 12127.8   5
   0  -6 -15 26400.5 4325.34   5
   0  -6 -16 228430. 11556.8   5
   0  -6 -17 3375.86 2080.87   5
   0  -6 -18 71927.4 5863.12   5
   0  -6 -19 30206.3 3478.57   5
   0  -6 -20 17827.5 2337.10   5
   0  -7   0 176.292 276.484   7
   0  -7  -1 436763. 9369.29   7
   0  -7   1 481229. 11316.4   7
   0  -7   2 20022.6 2496.57   7
   0  -7   3 179775. 7615.69   7
   0  -7   4 425762. 12254.4   7
   0  -7   5 73115.6 5291.44   7
   0  -7   6 221861. 9516.11   7
   0  -7   7 34782.2 3983.99   7
   0  -7   8 234767. 10489.0   7
   0  -7   9 54225.1 5152.53   7
   0  -7  10 140418. 8586.06   7
   0  -7 -10 122891. 7998.19   5
   0  -7  11 133631. 8504.33   7
   0  -7 -11 118930. 8114.89   5
   0  -7  12 31609.3 4313.31   7
   0  -7 -12 29314.5 4577.85   5
   0  -7 -13 314402. 13652.9   5
   0  -7 -14 1643.16 1739.00   5
   0  -7 -15 173779. 9940.24   5
   0  -7 -16 22055.7 3590.11   5
   0  -7 -17 128153. 7791.51   5
   0  -7 -18 82898.5 5809.24   5
   0  -7 -19 62648.6 4409.40   5
   0  -7 -20 33534.5 2666.15   5
   0  -8   0 166524. 6567.13   7
   0  -8   1 245382. 8455.50   7
   0  -8   2 2318.68 1424.13   7
   0  -8   3 237579. 9119.38   7
   0  -8   4 9901.52 2233.87   7
   0  -8   5 717345. 17227.6   7
   0  -8   6 3287.39 1740.82   7
   0  -8   7 757916. 18924.4   7
   0  -8   8 2614.91 1597.35   7
   0  -8   9 423298. 15085.0   7
   0  -8  10 591.529 1576.02   7
   0  -8 -10 1678.46 2266.80   5
   0  -8  11 371923. 14841.5   7
   0  -8 -11 337897. 13489.6   5
   0  -8 -12-11.9724 1629.37   5
   0  -8 -13 61875.0 6081.35   5
   0  -8 -14 284.364 1836.65   5
   0  -8 -15 8482.82 2430.10   5
   0  -8 -16 1491.76 1590.34   5
   0  -8 -17 6047.25 1681.19   5
   0  -8 -18 3861.68 1491.40   5
   0  -8 -19 44787.2 3175.78   5
   0  -9   1 135985. 6591.68   7
   0  -9   2 71996.0 5079.17   7
   0  -9   3 122198. 6881.77   7
   0  -9   4 104131. 6606.91   7
   0  -9   5 118443. 7225.98   7
   0  -9   6 249818. 10987.7   7
   0  -9   7 38837.0 4651.38   7
   0  -9   8 99770.7 7356.44   7
   0  -9   9 107988. 7962.90   7
   0  -9  10 17122.4 3500.20   7
   0  -9 -11 147638. 8856.89   5
   0  -9 -12 16161.3 3292.15   5
   0  -9 -13 282921. 12080.4   5
   0  -9 -14 3264.05 1396.78   5
   0  -9 -15 218135. 9979.32   5
   0  -9 -16 27391.2 3469.99   5
   0  -9 -17 101646. 5646.90   5
   0  -9 -18 10193.6 1679.80   5
   0 -10   0 634628. 18029.9   3
   0 -10   1 51339.7 5260.78   3
   0 -10  -1 54399.7 5378.88   3
   0 -10  -2 748601. 19804.8   3
   0 -10   2 781854. 19788.4   3
   0 -10   3 123892. 8067.10   3
   0 -10   3 132913. 7447.02   7
   0 -10  -3 122446. 8076.64   3
   0 -10   4 370638. 13757.9   3
   0 -10  -4 341646. 12120.5   6
   0 -10   4 380399. 12988.8   7
   0 -10   5 72568.9 5897.51   7
   0 -10   5 68600.9 6054.20   3
   0 -10  -5 67481.1 5442.95   6
   0 -10   6 72062.0 6282.73   7
   0 -10   7 265090. 12160.2   7
   0 -10   8 52449.2 5687.36   7
   0 -10   9 27142.6 4206.70   7
   0 -10  17 308.081 883.001   3
   0 -11   0-801.342 678.514   3
   0 -11  -1 8874.90 2331.33   3
   0 -11   1 7296.74 2744.59   3
   0 -11  -2 15480.4 2951.15   3
   0 -11   2 13925.6 2762.94   3
   0 -11   3 5696.97 1996.10   3
   0 -11  -3 7459.32 2303.04   3
   0 -11  -4 131543. 7804.94   6
   0 -11   4 145975. 8967.68   3
   0 -11   5 982.059 1117.73   3
   0 -11   5-1598.17 1399.77   7
   0 -11  -5 1175.42 1326.35   6
   0 -11   6 256684. 11948.2   3
   0 -11   6 258203. 11753.5   7
   0 -11   7 3389.20 1607.05   3
   0 -11   7 5380.59 2168.13   7
   0 -11   8 189746. 10240.7   3
   0 -11  14-726.116 1103.24   3
   0 -11  15 19764.2 2557.09   3
   0 -11  16 57236.4 4091.67   3
   0 -12   0 215674. 11442.0   3
   0 -12  -1 3581.48 2061.43   3
   0 -12   1 3625.19 2040.53   3
   0 -12   2 337937. 14241.8   3
   0 -12  -2 327348. 14129.1   3
   0 -12   3 297422. 13322.9   3
   0 -12  -3 307682. 12298.7   6
   0 -12   4 127227. 8884.57   3
   0 -12  -4 131163. 7904.58   6
   0 -12   5 272825. 12612.3   3
   0 -12   6 48933.7 5384.96   3
   0 -12   7 276626. 12401.8   3
   0 -12   8 31880.6 4187.75   3
   0 -12   9 217647. 10619.5   3
   0 -12  10 52666.5 5230.13   3
   0 -12  11 84032.2 6290.97   3
   0 -12  12 48006.1 4551.53   3
   0 -12  13 24039.6 3244.95   3
   0 -12  14 69296.4 4761.63   3
   0 -12  15 4190.75 1411.67   3
   0 -13   0-664.087 1599.42   3
   0 -13   1 396812. 15702.9   3
   0 -13  -1 362961. 15063.1   3
   0 -13   2 6014.07 2640.18   3
   0 -13  -2 7169.32 1860.46   6
   0 -13  -3 186723. 9326.38   6
   0 -13   3 170600. 10255.5   3
   0 -13  -4 39819.7 4354.98   6
   0 -13   4 37559.8 4984.46   3
   0 -13   5 49748.5 5449.44   3
   0 -13   6 1878.41 1658.23   3
   0 -13   7 12498.4 3010.39   3
   0 -13   8 15641.5 3047.49   3
   0 -13   9 103769. 7049.17   3
   0 -13  10 4878.62 1798.52   3
   0 -13  11 151126. 7645.21   3
   0 -13  12 813.067 1256.46   3
   0 -13  13 227593. 8147.40   3
   0 -13  14 2518.59 840.150   3
   0 -14   0 43791.3 5194.13   3
   0 -14  -1 23986.1 3218.51   6
   0 -14   1 19457.2 3599.72   3
   0 -14  -2 13364.4 2443.15   6
   0 -14   2 20169.2 3878.26   3
   0 -14  -3 114300. 6853.92   6
   0 -14   3 113743. 8135.44   3
   0 -14   4 22423.7 3672.58   3
   0 -14   5 268628. 11789.2   3
   0 -14   6 3589.24 1832.38   3
   0 -14   7 337276. 12373.6   3
   0 -14   8 821.726 1018.33   3
   0 -14   9 390429. 12306.9   3
   0 -14  10 686.627 988.889   3
   0 -14  11 148804. 6670.59   3
   0 -14  12 15774.4 1951.10   3
   0 -15   0 1088.98 911.788   6
   0 -15  -1 77174.1 5224.26   6
   0 -15   1 81582.0 5608.61   6
   0 -15   2 45112.4 4774.03   3
   0 -15   3 22126.9 3297.17   3
   0 -15   4 60076.9 5235.21   3
   0 -15   5 196.384 1298.64   3
   0 -15   6 106638. 6485.19   3
   0 -15   7 9326.71 1851.99   3
   0 -15   8 69556.9 4735.57   3
   0 -15   9 37987.5 3351.90   3
   0 -15  10 53939.8 3626.54   3
   0 -15  11 49756.4 3182.75   3
   0 -16   1-365.050 364.861   6
   0 -16   2 337996. 9281.68   6
   0 -16   3 2011.88 932.935   6
   0 -16   4 226912. 7589.33   6
   0 -16   6 105560. 5309.77   3
   0 -16   7 570.472 656.401   3
   0 -16   8 5102.44 1105.70   3
   1   0 -22 104.438 627.387   2
   1   0 -20-116.856 504.080   5
   1   0 -19 112157. 7648.56   5
   1   0 -18 581.754 1067.19   5
   1   0 -17 220503. 11661.8   5
   1   0 -16-144.519 789.458   5
   1   0 -15 13700.6 3042.57   5
   1   0 -14-852.442 1710.15   5
   1   0 -13 97144.0 7277.55   5
  -1   0  11 81453.0 4130.33   7
  -1   0  10 1008.79 432.061   7
  -1   0   9 204912. 6001.85   7
  -1   0   8 639.604 535.023   7
  -1   0   7 581060. 9053.94   7
  -1   0   6 311.284 372.304   7
  -1   0   5 244472. 5095.41   7
  -1   0   4 121.082 346.838   7
  -1   0   3 436666. 5677.21   7
   1   0  -3 444437. 2620.11   1
   1   0  -2 351.984 173.438   1
   1   0  -1 136668. 2345.73   1
   1   0   0 125.929 271.058   1
   1   0   1 102571. 2525.34   1
   1   0   2-101.071 289.202   1
   1   0   3 969029. 9046.93   1
   1   0   4 310.392 444.955   1
   1   0   5 727364. 8833.24   1
   1   0   6-2.60483 441.087   1
   1   0   7 992477. 11654.5   1
   1   0   8 199.513 469.623   1
   1   0   9 595625. 10161.6   1
   1   0  10-419.920 378.151   1
  -1   0 -12 673.770 1243.48   4
  -1   0 -12-968.240 1344.80   5
  -1   0 -13 118232. 8105.62   4
  -1   0 -13 106377. 7241.24   5
  -1   0 -14 4591.14 2084.59   5
  -1   0 -14 24.6127 1535.00   4
  -1   0 -15 6330.21 2304.23   4
  -1   0 -15 6556.04 1988.41   5
  -1   0 -16 3319.32 1346.93   4
  -1   0 -16-930.101 800.153   5
  -1   0 -17 814.148 1306.38   5
  -1   0 -18 1017.01 969.886   5
  -1   0 -19 53955.1 4745.51   5
  -1   0 -20 804.826 516.566   5
  -1   0 -21 69265.7 3693.01   5
   1   1 -22 29826.0 2534.73   2
   1  -1 -21 10629.7 1899.84   2
   1  -1 -20 71880.2 5578.73   5
   1   1 -19 33857.4 4090.33   5
   1  -1 -19 43546.4 4945.03   5
   1   1 -18 38396.6 4747.69   5
   1  -1 -18 43266.8 5091.44   5
   1  -1 -17 145434. 9635.83   5
   1   1 -17 141550. 9096.98   5
   1  -1 -16 17798.7 3538.34   5
   1   1 -16 12106.5 2670.58   5
   1   1 -15 345223. 14043.4   5
   1  -1 -15 327360. 14357.1   5
   1   1 -14 2649.50 1194.07   5
   1  -1 -14 5761.55 2096.91   5
   1  -1 -13 261570. 12086.2   5
   1  -1 -13 284538. 12397.9   6
   1   1 -13 286750. 12182.9   5
  -1  -1  12 126365. 5811.66   7
  -1  -1  11 587530. 12154.0   7
  -1  -1  10 311856. 8454.01   7
  -1   1   9 191448. 5062.78   7
  -1  -1   9 181382. 6272.06   7
  -1   1   8 286954. 6011.02   7
  -1  -1   8 294737. 7494.00   7
  -1  -1   7 19238.7 1892.51   7
  -1   1   7 18658.8 1441.20   7
  -1  -1   6 236414. 6108.73   7
  -1   1   6 241225. 4772.71   7
  -1   1   5 218572. 4220.91   7
  -1  -1   5 229069. 5527.71   7
  -1   1   4 185365. 3331.48   7
  -1  -1   4 182079. 4506.96   7
  -1  -1   3 677550. 7998.41   7
   1  -1  -2 125588. 2029.24   1
  -1  -1   2 107042. 3051.02   7
   1  -1  -1 343477. 3791.12   1
   1  -1   0 79882.6 2011.62   1
   1  -1   1 593340. 5893.89   1
   1   1   2 126074. 3428.82   1
   1  -1   2 120204. 2900.04   1
   1   1   3 808224. 9075.83   1
   1  -1   3 816163. 8098.34   1
   1  -1   4 529609. 8718.12   7
   1  -1   4 521862. 7008.20   1
   1   1   4 543722. 7788.82   1
   1  -1   5 314491. 7214.29   7
   1   1   5 325137. 6351.10   1
   1  -1   5 317159. 5838.50   1
   1  -1   6 3973.53 855.895   1
   1  -1   6 3978.05 911.971   7
   1   1   6 3873.41 810.558   1
   1  -1   7 283165. 6307.85   1
   1   1   7 292365. 6570.58   1
   1   1   8 44541.7 2728.35   1
   1  -1   8 43304.7 2642.76   1
   1   1   9 14790.3 1711.26   1
   1  -1   9 15077.5 1673.82   1
   1   1  10 137991. 5089.18   1
   1  -1  10 147502. 5528.79   1
  -1  -1 -12 17454.6 2842.82   5
  -1   1 -12 21647.4 3645.82   4
  -1   1 -12 16435.4 2925.80   5
  -1  -1 -13 88396.0 7047.98   4
  -1  -1 -13 84100.1 6494.73   5
  -1   1 -13 87584.6 6387.99   5
  -1   1 -13 84739.7 6952.30   4
  -1   1 -14 53157.2 5249.28   5
  -1  -1 -14 53820.1 5556.08   5
  -1  -1 -14 52377.8 5611.15   4
  -1   1 -14 57288.2 6077.79   4
  -1   1 -15 94869.2 7049.32   5
  -1   1 -15 103921. 7825.57   4
  -1  -1 -15 96455.1 7400.70   5
  -1  -1 -15 104506. 7725.89   4
  -1   1 -16-1604.25 1760.65   4
  -1  -1 -16 1066.02 1452.70   5
  -1   1 -16 1998.58 1277.57   5
  -1  -1 -16 1753.31 1993.61   4
  -1  -1 -17 72550.5 6442.22   5
  -1   1 -17 68638.1 5820.58   5
  -1   1 -18 12242.8 2356.10   5
  -1  -1 -18 10153.9 2390.98   5
  -1  -1 -19 14394.7 2584.53   5
  -1   1 -19 10069.2 1897.98   5
  -1  -1 -20 48358.4 3947.11   5
  -1   1 -20 42978.1 3429.88   5
  -1  -1 -21 1156.19 669.991   5
   1   2 -22 24744.9 2306.07   2
   1  -2 -21 16240.3 2469.82   5
   1  -2 -20 1667.65 917.906   5
   1  -2 -19 20063.4 3294.63   5
   1   2 -18 58419.0 5704.84   5
   1  -2 -18 56239.9 5911.66   5
   1   2 -17 55942.2 5562.37   5
   1  -2 -17 47745.0 5535.34   5
   1  -2 -16 22162.3 4023.44   5
   1   2 -16 29179.3 3966.10   5
   1   2 -15 978.123 1511.68   5
   1  -2 -15 4599.99 2175.24   5
   1  -2 -14 230697. 12049.2   5
   1  -2 -14 234613. 11651.9   6
   1   2 -14 241753. 11237.9   5
  -1  -2  13 8361.74 1762.57   7
   1  -2 -13 9754.23 2840.05   5
   1   2 -13 7703.13 2185.98   5
   1  -2 -13 14271.9 2984.45   6
  -1  -2  12 172691. 7313.60   7
   1  -2 -12 162563. 9500.48   5
  -1  -2  11 12654.4 1949.59   7
  -1  -2  10 235159. 8063.31   7
  -1  -2   9 103584. 5085.80   7
  -1  -2   8 148767. 5801.22   7
  -1  -2   7 32441.4 2672.46   7
  -1   2   7 34844.0 1504.73   7
  -1  -2   6 6741.96 1260.02   7
  -1   2   6 9350.89 731.810   7
  -1   2   5 334395. 3919.24   7
  -1  -2   5 333447. 7469.31   7
  -1   2   4 7370.32 531.619   7
  -1  -2   4 7824.51 1180.34   7
  -1  -2   3 47355.3 2411.04   7
  -1  -2   2 33760.0 1920.58   7
   1  -2  -1 175809. 3405.32   1
   1  -2   0 737371. 7122.19   1
   1  -2   1 14179.8 1098.97   1
   1  -2   1 11583.0 1190.38   7
   1  -2   2 388856. 5693.39   1
   1  -2   2 350116. 6721.99   7
   1  -2   3 16619.5 1727.24   7
   1  -2   3 18470.4 1368.69   1
   1  -2   4 140438. 5051.01   7
   1   2   4 144206. 4567.47   1
   1  -2   4 134689. 3802.48   1
   1  -2   5 34635.2 2692.66   7
   1   2   5 35458.4 2325.46   1
   1  -2   5 33497.4 2020.76   1
   1  -2   6 138341. 5654.38   7
   1  -2   6 130774. 4230.29   1
   1   2   6 141711. 4762.60   1
   1  -2   7 132593. 4574.69   1
   1  -2   7 140366. 5967.67   7
   1   2   7 145792. 5013.36   1
   1   2   8 344.967 327.714   1
   1  -2   8 866.251 755.010   7
   1  -2   8 1570.27 588.038   1
   1   2   9 128240. 4981.94   1
   1  -2   9 136583. 6371.16   7
   1  -2   9 126641. 5160.66   1
   1  -2  10 80690.2 4351.07   1
   1   2  10 80161.9 3950.59   1
  -1  -2 -12 197266. 9643.29   5
  -1   2 -12 186376. 10017.2   4
  -1   2 -13 58831.5 5266.59   5
  -1  -2 -13 59239.4 5387.25   5
  -1   2 -13 57312.0 6061.78   4
  -1   2 -14 306362. 12016.0   5
  -1  -2 -14 299293. 12897.0   5
  -1   2 -14 293902. 13224.5   4
  -1   2 -15 2248.23 1529.58   5
  -1  -2 -15 4025.88 1921.27   5
  -1   2 -15-285.882 1262.64   4
  -1  -2 -16 207857. 10925.2   5
  -1   2 -16 201933. 10898.0   4
  -1   2 -16 197453. 9772.63   5
  -1  -2 -17 2356.26 1111.23   5
  -1   2 -17 1242.05 1252.42   5
  -1   2 -18 191979. 8742.28   5
  -1  -2 -18 200188. 10046.1   5
  -1   2 -19 22961.1 2756.28   5
  -1  -2 -19 20021.8 3059.42   5
  -1  -2 -20 84022.1 5248.23   5
  -1  -2 -21 31145.4 2658.75   5
   1   3 -22 96587.7 4312.78   2
   1  -3 -21 3673.44 1135.35   5
   1  -3 -20 142340. 7706.95   5
   1  -3 -19-3447.27 1871.61   5
   1  -3 -18 125921. 8754.27   5
   1   3 -17 2871.77 1414.12   5
   1  -3 -17 827.149 2137.17   5
   1   3 -16 31683.3 4280.89   5
   1  -3 -16 38217.3 5320.52   5
   1  -3 -15 766.599 2291.55   5
   1  -3 -15 209.554 1306.32   6
   1   3 -15 1986.69 1345.50   5
  -1  -3  14 8808.20 1985.01   7
   1  -3 -14 11884.8 2954.27   5
   1  -3 -14 11257.9 2854.50   6
   1   3 -14 11056.0 2723.20   5
   1   3 -13 47632.2 5036.40   5
   1  -3 -13 55364.3 5621.72   6
   1  -3 -13 49178.7 5616.17   5
  -1  -3  13 42363.6 3994.24   7
   1  -3 -12 93061.1 7340.68   5
  -1  -3  12 93385.3 5797.70   7
   1  -3 -12 88476.3 6599.01   6
   1   3 -12 94595.9 6491.08   5
  -1  -3  11 11552.9 2135.01   7
  -1  -3  10 419702. 11515.8   7
  -1  -3   9 18762.0 2342.34   7
  -1  -3   8 635769. 13020.9   7
  -1  -3   7 18522.3 2197.32   7
  -1  -3   6 999999. 15074.3   7
  -1  -3   5 271.758 774.203   7
  -1  -3   4 575711. 9997.60   7
  -1  -3   3 5193.28 994.538   7
  -1  -3   2 721282. 9651.13   7
  -1  -3   1 218468. 5023.76   7
   1  -3   0 44207.6 2177.53   1
   1  -3   0 37212.3 2007.27   7
  -1  -3   0 39176.4 2085.06   7
   1  -3   1 10758.7 1310.20   7
   1  -3   1 13832.6 1293.98   1
   1  -3   2 135202. 3961.09   1
   1  -3   2 127064. 4619.85   7
   1  -3   3 9126.45 1191.99   1
   1  -3   3 9066.66 1511.06   7
   1  -3   4 132908. 5518.47   7
   1  -3   4 133165. 4265.24   1
   1  -3   5 185766. 5322.92   1
   1   3   5 181318. 5859.49   1
   1  -3   5 175870. 6696.80   7
   1   3   6 238452. 6816.08   1
   1  -3   6 242200. 8116.38   7
   1  -3   6 230482. 6247.48   1
   1  -3   7 238.891 748.506   7
   1   3   7 564.335 697.418   1
   1  -3   7 375.972 589.556   1
   1  -3   8 292029. 7862.89   1
   1  -3   8 295112. 9699.86   7
   1   3   8 295109. 7882.62   1
   1   3   9 788.121 555.499   1
   1  -3   9-930.826 596.623   1
   1  -3   9 117.370 838.288   7
   1  -3  10 255651. 9592.04   7
   1  -3  10 249630. 8212.24   1
  -1   3 -11 28347.3 4149.20   4
  -1  -3 -11 30475.2 3728.27   5
  -1  -3 -12 116397. 7526.38   5
  -1   3 -12 109013. 7876.31   4
  -1   3 -13 7503.31 2227.43   4
  -1  -3 -13 7206.03 2034.62   5
  -1  -3 -14 46844.1 5258.04   5
  -1   3 -14 39043.6 4852.73   4
  -1   3 -15 683.309 1368.43   4
  -1  -3 -15 1331.58 1135.31   5
  -1  -3 -16 73.3644 1321.60   5
  -1  -3 -17 10796.8 2745.30   5
  -1  -3 -18 31225.1 4099.36   5
  -1  -3 -19 2666.58 1274.85   5
  -1  -3 -20 29106.0 3015.16   5
  -1  -3 -21 420.181 600.751   5
   1  -4 -21 45944.9 3650.50   5
   1   4 -21 50599.2 3691.05   2
   1  -4 -20 30936.5 3563.19   5
   1  -4 -19 97881.2 6898.04   5
   1  -4 -18 2940.76 2289.33   5
   1  -4 -17 44067.8 5337.56   5
   1  -4 -16 30546.8 4884.08   5
   1  -4 -15 29445.0 4361.48   6
   1  -4 -15 23178.2 4511.07   5
   1   4 -15 29471.5 3805.58   5
  -1  -4  14 193331. 9236.74   7
   1  -4 -14 225275. 12230.9   5
   1  -4 -14 221472. 11003.9   6
   1   4 -14 214502. 10132.3   5
   1  -4 -13-600.357 1177.17   6
  -1  -4  13-698.147 581.807   7
   1   4 -13 1328.44 1375.18   5
   1  -4 -13-791.659 1842.51   5
   1  -4 -12 87388.6 7294.23   5
   1  -4 -12 93725.0 6872.72   6
  -1  -4  12 98824.2 6315.22   7
   1   4 -12 93200.2 6345.17   5
  -1  -4  11 13773.7 2271.18   7
  -1  -4  10 35282.9 3601.35   7
  -1  -4   9 129296. 6657.23   7
  -1  -4   8 153414. 6912.49   7
  -1  -4   7 168047. 7074.71   7
  -1  -4   6 141261. 6136.29   7
  -1  -4   5 114830. 5351.81   7
  -1  -4   4 87309.8 4402.33   7
  -1  -4   3 169239. 5634.71   7
  -1  -4   2 156147. 5024.24   7
  -1  -4   1 41143.7 2431.48   7
   1  -4   0 93079.1 3579.46   7
  -1  -4   0 89922.8 3398.53   7
  -1  -4  -1 11377.3 1233.90   7
   1  -4   1 9721.93 1372.22   7
   1  -4   2 181408. 6168.97   7
  -1  -4  -2 182303. 4485.60   7
   1  -4   3 12926.3 1848.90   7
   1  -4   3 16053.6 1704.13   1
   1  -4   4 124294. 4647.45   1
   1  -4   4 110732. 5484.43   7
   1  -4   5 266738. 7057.44   1
   1  -4   5 254453. 8658.07   7
   1   4   6 182709. 6550.84   1
   1  -4   6 162413. 7231.30   7
   1  -4   6 173974. 5995.77   1
   1  -4   7 145989. 7168.67   7
   1   4   7 158917. 6147.41   1
   1  -4   7 152435. 5869.77   1
   1   4   8 19764.5 2204.99   1
   1  -4   8 15774.2 2480.10   7
   1  -4   9 331699. 11441.4   7
   1   4   9 337878. 9181.26   1
   1  -4  10 5440.85 1758.90   7
  -1  -4 -11 149893. 8590.73   5
  -1   4 -11 169570. 9497.58   4
  -1   4 -12 226623. 11330.1   4
  -1  -4 -12 221743. 10682.5   5
  -1  -4 -13 20571.9 3518.83   5
  -1   4 -13 20496.2 3745.78   4
  -1   4 -14 158343. 9916.72   4
  -1  -4 -14 150692. 9292.70   5
  -1  -4 -15 17309.5 3586.04   5
  -1  -4 -16 186017. 10368.2   5
  -1  -4 -17 2646.17 1227.32   5
  -1  -4 -18 103744. 6989.53   5
  -1  -4 -19 38095.4 3987.24   5
  -1  -4 -20 50147.4 3934.13   5
  -1  -4 -21 34838.2 2645.29   5
   1   5 -21 21124.6 2269.36   2
   1  -5 -21 25209.4 2528.88   5
   1  -5 -20-192.249 854.825   5
   1  -5 -19 126324. 7511.85   5
   1  -5 -18 537.709 1312.10   5
   1  -5 -17 242443. 12013.7   5
   1  -5 -16 2132.87 1466.04   6
   1  -5 -16 2113.92 2333.84   5
   1  -5 -15 312332. 13049.8   6
   1  -5 -15 304365. 14349.3   5
  -1  -5  14 2078.71 1074.60   7
   1  -5 -14-662.897 808.735   6
   1  -5 -14 1730.99 1472.60   5
   1  -5 -13 452694. 16957.0   5
   1  -5 -13 484355. 15830.8   6
  -1  -5  13 471412. 14897.7   7
   1  -5 -12 3687.88 2586.27   5
   1  -5 -12 1449.86 1760.25   6
  -1  -5  12 2763.20 1334.13   7
   1  -5 -11 433971. 15714.0   5
   1  -5 -11 468537. 14646.5   6
  -1  -5  10 750.662 1282.37   7
  -1  -5   9 393319. 12421.3   7
  -1  -5   8 1810.16 1162.75   7
  -1  -5   7 112074. 6175.15   7
  -1  -5   6 60891.5 4485.65   7
  -1  -5   5 19623.4 2570.78   7
  -1  -5   4 98259.9 5123.07   7
  -1  -5   3 114501. 5196.31   7
  -1  -5   2 112339. 4836.57   7
   1  -5  -1 508827. 8128.89   7
  -1  -5   1 557118. 9854.13   7
  -1  -5   0 8422.22 1258.66   7
   1  -5   0 9473.18 1350.89   7
  -1  -5  -1 589086. 9067.05   7
   1  -5   1 561591. 10826.9   7
   1  -5   2 85547.9 4644.40   7
  -1  -5  -2 83899.4 3239.05   7
  -1  -5  -3 658027. 8575.50   7
   1  -5   3 599423. 12894.6   7
   1  -5   4 28126.8 3090.65   7
  -1  -5  -4 30819.0 1796.12   7
   1  -5   5 392288. 11579.2   7
   1  -5   6 60270.7 4796.62   7
   1  -5   7 24968.9 3280.61   7
   1   5   7 30271.4 2915.02   1
   1  -5   8 31440.9 3609.48   7
   1   5   8 32864.1 3037.83   1
   1   5   9 36131.2 3168.76   1
   1  -5   9 32102.7 3779.24   7
  -1  -5 -10 47481.9 4779.79   5
   1  -5  10 46515.3 4896.22   7
  -1   5 -10 47694.4 4897.61   4
  -1   5 -11 12726.9 2818.99   4
  -1  -5 -11 15176.5 3041.15   5
   1  -5  11 16584.2 2985.59   7
  -1  -5 -12 2204.15 1351.20   5
  -1   5 -12 3241.22 1472.01   4
  -1  -5 -13 46253.1 5212.79   5
  -1   5 -13 40925.3 5296.04   4
  -1  -5 -14 1059.58 1609.39   5
  -1  -5 -15 91660.1 7319.37   5
  -1  -5 -16 23.8389 1446.42   5
  -1  -5 -17 66856.9 6131.04   5
  -1  -5 -18 4159.85 1506.57   5
  -1  -5 -19 14806.8 2449.72   5
  -1  -5 -20 2291.17 937.427   5
   1   6 -20 327.636 380.263   2
   1  -6 -20 711.270 561.274   5
   1  -6 -19 181191. 8363.02   5
   1  -6 -18 2249.31 1569.30   5
   1  -6 -17 163762. 9481.51   5
   1  -6 -16 66363.9 5819.47   6
   1  -6 -16 61107.0 6262.70   5
   1  -6 -15 83509.9 7472.01   5
   1  -6 -15 84143.8 6693.26   6
   1  -6 -14 28417.4 4540.47   5
   1  -6 -14 32667.6 4300.77   6
   1  -6 -13 763.437 1422.35   6
   1  -6 -13-2295.89 2461.73   5
  -1  -6  13 1257.37 1535.84   7
   1  -6 -12 69151.4 6732.65   5
  -1  -6  12 65980.5 5771.72   7
   1  -6 -12 69273.9 6035.36   6
   1  -6 -11 40975.9 4581.56   6
   1  -6 -11 32432.0 4718.02   5
  -1  -6  11 35615.0 4247.01   7
   1  -6 -10 21345.2 3633.57   6
  -1  -6  10 24219.6 3297.34   7
  -1  -6   9 108812. 7049.45   7
  -1  -6   8 5668.31 1820.25   7
  -1  -6   7 549082. 14347.7   7
  -1  -6   6 3532.28 1410.79   7
  -1  -6   5 308484. 10024.5   7
  -1  -6   4 175722. 7294.73   7
  -1  -6   3 69811.4 4440.04   7
  -1  -6   2 98999.5 4966.37   7
   1  -6  -1 139300. 4710.98   7
  -1  -6   1 132618. 5394.73   7
   1  -6   0 56128.4 3403.59   7
  -1  -6   0 49650.6 3160.76   7
  -1  -6  -1 80073.0 3761.74   7
   1  -6   1 87325.8 4647.23   7
  -1  -6  -2 90506.7 3729.09   7
   1  -6   2 94848.6 5207.54   7
  -1  -6  -3 119672. 4008.37   7
   1  -6   3 132583. 6501.91   7
   1  -6   4 7596.31 1846.75   7
   1  -6   5 584944. 14995.8   7
   1  -6   6 101806. 6492.19   7
   1  -6   7 563565. 15744.3   7
   1   6   8 1049.04 826.644   1
   1  -6   8 676.298 770.803   7
  -1   6  -9 695648. 17933.0   4
   1   6   9 684807. 14387.3   1
   1  -6   9 694011. 18450.6   7
   1  -6  10 41083.6 4718.15   7
  -1  -6 -10 29175.9 3931.29   5
  -1   6 -10 35656.7 4330.98   4
   1  -6  11 310063. 12847.6   7
  -1  -6 -11 300528. 12460.5   5
  -1   6 -11 303013. 12717.9   4
  -1   6 -12 71303.2 6415.21   4
  -1  -6 -12 73592.8 6354.40   5
  -1  -6 -13 139961. 8991.84   5
  -1  -6 -14 64107.2 6180.84   5
  -1  -6 -15 1364.17 1557.35   5
  -1  -6 -16 81079.3 6662.57   5
  -1  -6 -17 3605.12 2128.68   5
  -1  -6 -18 34653.8 3816.97   5
  -1  -6 -19 59774.0 4453.48   5
  -1  -6 -20 11428.0 1792.47   5
   1   7 -20 67411.1 3772.44   2
   1  -7 -20 67950.5 3783.39   5
   1   7 -19 10018.3 1768.80   2
   1  -7 -19 10500.9 1802.72   5
   1  -7 -18 31508.6 3563.71   5
   1  -7 -17 63305.2 5528.74   5
   1  -7 -16 25219.1 3501.09   6
   1  -7 -16 12765.2 2689.76   5
   1  -7 -15 207844. 11088.6   5
   1  -7 -15 211358. 10015.4   6
   1  -7 -14 4344.80 1783.91   6
   1  -7 -14 1878.06 1857.16   5
   1  -7 -13 231859. 10876.4   6
   1  -7 -13 238443. 12176.4   5
   1  -7 -12 42292.1 5355.48   5
   1  -7 -12 42196.3 4788.06   6
  -1  -7  12 45869.8 5041.01   7
   1  -7 -11 127821. 8409.19   5
  -1  -7  11 156689. 9200.43   7
   1  -7 -11 155725. 8791.45   6
  -1  -7  10 280355. 11988.6   7
   1  -7 -10 253599. 10850.1   6
   1  -7  -9 67670.7 5581.51   6
  -1  -7   9 71030.5 6092.57   7
  -1  -7   8 521249. 15584.2   7
  -1  -7   7 2191.74 1327.77   7
  -1  -7   6 600041. 15337.4   7
  -1  -7   5 23898.1 3172.73   7
  -1  -7   4 764834. 16137.9   7
  -1  -7   3 357178. 10601.7   7
  -1  -7   2 349582. 9944.99   7
  -1  -7   1 122776. 5659.36   7
   1  -7  -1 124895. 4807.68   7
   1  -7   0 253655. 7681.89   7
  -1  -7   0 258086. 7905.64   7
   1  -7   1 216869. 7763.85   7
  -1  -7  -1 205728. 6689.32   7
   1  -7   2 518.491 864.948   7
  -1  -7  -2 138.197 372.660   7
   1  -7   3 227120. 9038.07   7
   1  -7   4 112077. 6689.34   7
   1  -7   5 226587. 9825.82   7
   1  -7   6 146634. 8148.51   7
   1  -7   7 63955.8 5619.91   7
   1  -7   8 299965. 12425.0   7
  -1   7  -8 283100. 11152.4   4
   1   7   8 301288. 10313.5   1
   1  -7   9 5954.82 2142.89   7
  -1  -7  -9 7026.04 1994.85   5
   1  -7  10 61295.9 5875.12   7
  -1  -7 -10 45133.2 5004.15   5
   1  -7  11 14040.4 3246.82   7
  -1  -7 -11 12271.4 3160.29   5
  -1  -7 -12 145327. 9005.08   5
  -1  -7 -13 47938.2 5574.36   5
  -1  -7 -14 17421.6 3720.77   5
  -1  -7 -15 71094.4 6209.30   5
  -1  -7 -16 8666.67 2601.14   5
  -1  -7 -17 55801.5 4995.81   5
  -1  -7 -18 5473.89 1647.32   5
  -1  -7 -19 7324.29 1659.70   5
   1  -8 -19-284.159 803.701   5
   1   8 -19-390.018 394.835   2
   1   8 -18 12721.5 2059.20   2
   1  -8 -18 15083.7 2330.90   5
   1   8 -17-207.932 624.506   2
   1  -8 -17 955.996 1131.70   5
   1  -8 -16 194978. 9592.66   5
   1  -8 -15-2261.29 1176.05   6
   1  -8 -15-2338.54 1086.66   5
   1  -8 -14 143895. 8927.24   5
   1  -8 -14 151079. 8454.08   6
   1  -8 -13 2851.74 1778.10   6
   1  -8 -13 1080.49 1812.83   5
   1  -8 -12 190309. 10391.4   5
   1  -8 -12 206168. 10168.7   6
  -1  -8  11 4159.20 1815.70   7
   1  -8 -11 6325.75 2326.06   6
  -1  -8  10 189083. 10278.8   7
   1  -8 -10 192922. 9686.80   6
   1  -8  -9 9671.15 2070.78   6
  -1  -8   9 6183.16 2222.18   7
  -1  -8   8 41241.7 4767.92   7
   1  -8  -8 36859.9 4126.03   6
  -1  -8   7 40151.0 4643.78   7
  -1  -8   6 1224.20 1041.68   7
  -1  -8   5 7265.31 1702.56   7
  -1  -8   4 191185. 8398.98   7
  -1  -8   3 651.558 819.057   7
  -1  -8   2 217841. 8319.05   7
  -1  -8   1 20821.5 2645.84   7
  -1  -8   0 317536. 9264.52   7
   1  -8   0 301290. 8767.95   7
   1  -8   1 13377.5 2041.82   7
  -1  -8  -1 14273.4 1991.86   7
   1  -8   2 660699. 15166.8   7
   1  -8   3 48034.6 4354.31   7
   1  -8   4 196836. 9138.04   7
   1  -8   5 1236.14 1188.86   7
   1  -8   6 74485.4 6043.44   7
   1  -8   7 27517.2 3939.16   7
   1  -8   8 815.888 1912.79   7
  -1  -8  -8 916.550 764.878   5
   1   8   8 4672.10 1602.60   1
   1  -8   9 1739.85 1916.24   7
  -1  -8  -9 988.895 1303.32   5
  -1  -8 -10 48597.1 5157.50   5
   1  -8  10 47446.9 5410.30   7
  -1  -8 -11 4526.87 2313.54   5
  -1  -8 -12 204892. 10610.2   5
  -1  -8 -13 7579.92 2413.58   5
  -1  -8 -14 281557. 12342.2   5
  -1  -8 -15 483.585 1399.53   5
  -1  -8 -16 246951. 10443.0   5
  -1  -8 -17 1070.10 998.570   5
  -1  -8 -18 197409. 7521.99   5
  -1  -8 -19 1300.95 573.569   5
  -1  -9  18 56618.4 3770.17   3
   1   9 -16 42532.4 3746.74   2
   1   9 -15 50310.1 4248.38   2
   1  -9 -14 6679.73 1850.78   6
   1  -9 -13 155494. 8539.34   6
   1  -9 -12 37157.9 4280.65   6
   1  -9 -11 74278.3 6143.35   6
   1  -9 -10 285989. 11937.3   6
  -1  -9  10 319327. 13812.4   7
  -1  -9   9 88079.0 7233.63   7
   1  -9  -9 71645.2 5968.42   6
  -1  -9   8 413487. 15135.4   7
   1  -9  -8 370008. 13262.8   6
   1  -9  -7 29004.7 3846.58   6
  -1  -9   7 24265.3 3867.69   7
  -1  -9   6 612625. 17398.3   7
   1  -9  -6 538644. 15605.5   6
  -1  -9   5 25256.2 3525.94   7
   1  -9  -5 25654.5 3539.15   6
   1  -9  -4 809755. 19940.8   3
  -1  -9   4 834710. 18975.7   7
  -1  -9   3 37544.4 3858.31   7
  -1  -9   2 266943. 9741.54   7
  -1  -9   1 172953. 7477.08   7
   1  -9   2 74152.8 5313.98   7
   1  -9   3 120682. 7142.25   7
   1  -9   3 114550. 7479.50   3
   1  -9   4 36182.9 4224.73   7
   1  -9   5 184192. 9479.38   7
   1  -9   6 115049. 7844.75   7
   1  -9   7 1569.37 1063.32   7
   1  -9   8 287903. 12912.7   7
   1   9   8 272913. 10657.0   1
  -1  -9  -8 258850. 10987.1   5
   1  -9   9 1393.48 2446.15   7
  -1  -9  -9 3062.19 1555.54   5
  -1  -9 -10 131953. 8346.11   5
  -1  -9 -11 2824.48 1868.62   5
  -1  -9 -12 45507.0 5105.39   5
  -1  -9 -13 21424.6 3646.32   5
  -1  -9 -14 22256.7 3311.57   5
  -1  -9 -15 17402.2 3006.32   5
  -1  -9 -16 12805.1 2131.90   5
  -1  -9 -17 7896.88 1530.78   5
  -1  -9 -18 9787.40 1491.83   5
  -1 -10  17 67531.8 4112.40   3
  -1 -10  16 2894.04 992.805   3
   1 -10 -13 11495.7 2201.54   6
   1 -10 -12 20666.5 3197.21   6
   1 -10 -11 3354.19 1330.25   6
   1 -10 -10 96973.0 6995.03   6
   1 -10  -9 54942.4 5277.05   6
  -1 -10   9 56882.3 5966.28   7
  -1 -10   8-330.314 878.339   7
   1 -10  -8 2356.33 1077.66   6
  -1 -10   7 225092. 11076.5   7
   1 -10  -7 215550. 10352.8   6
  -1 -10   7 231458. 10670.7   3
  -1 -10   6 20083.8 3189.79   3
  -1 -10   6 25277.7 3928.23   7
   1 -10  -6 26815.3 4080.12   6
  -1 -10   5 182793. 9375.01   7
  -1 -10   5 181053. 9420.09   3
   1 -10  -5 170963. 9227.73   6
   1 -10  -4 54886.6 5525.28   3
  -1 -10   4 54586.4 5274.69   3
  -1 -10   4 60289.8 5296.39   7
   1 -10  -4 61839.8 5685.53   6
  -1 -10   3 195251. 9742.21   3
   1 -10  -3 193245. 10393.5   3
  -1 -10   3 201059. 9177.68   7
  -1 -10   2 53979.3 4622.75   7
  -1 -10   2 46732.4 4909.69   3
   1 -10  -2 46364.9 5168.16   3
  -1 -10   1 15333.1 2955.26   3
   1 -10  -1 9695.12 2959.23   3
   1 -10   0 231846. 11203.0   3
  -1 -10   0 217142. 10382.7   3
   1 -10   1 810.284 1486.94   3
  -1 -10  -1 934.023 1276.41   3
  -1 -10  -2 175617. 9400.20   3
   1 -10   2 181609. 9934.93   3
   1 -10   3 329197. 13446.5   3
   1 -10   3 354230. 12339.2   7
   1 -10   4 45092.8 5064.11   3
   1 -10   4 39526.5 4372.81   7
   1 -10   5 458251. 15257.9   7
   1 -10   6 6829.00 2706.58   7
   1 -10   7 349038. 14115.9   7
   1 -10   8 13083.6 2853.68   7
  -1 -10 -10 22922.1 3428.45   5
  -1 -10 -11 226452. 10368.4   5
  -1 -10 -12 65595.3 5715.93   5
  -1 -10 -13 59742.0 5080.53   5
  -1 -10 -14 37012.2 3821.13   5
  -1 -10 -15 10239.0 2089.70   5
  -1 -10 -16 24325.3 2639.08   5
   1 -10  17 5377.47 1220.96   3
  -1 -11  16-1974.77 958.678   3
  -1 -11  15 264215. 9010.58   3
  -1 -11  14 1510.63 1124.97   3
  -1 -11  13 447989. 13393.1   3
   1 -11 -12 26387.2 3273.71   6
  -1 -11  12 27920.3 3583.87   3
   1 -11 -11 219121. 9907.42   6
  -1 -11  11 211418. 9891.91   3
  -1 -11  10 731.962 712.183   3
   1 -11 -10 1900.35 1036.29   6
  -1 -11   9 131501. 8153.83   3
   1 -11  -9 145934. 8505.79   6
   1 -11  -8 23586.4 3661.37   6
  -1 -11   8 21925.5 3583.07   3
   1 -11  -7 49534.7 5262.34   6
  -1 -11   7 48448.2 5109.34   3
  -1 -11   6 65432.6 5753.68   7
   1 -11  -6 63201.7 5735.93   6
  -1 -11   6 68904.7 6023.42   3
   1 -11  -5 54686.3 5416.70   6
  -1 -11   5 63011.1 5780.28   3
  -1 -11   5 53304.3 5321.10   7
  -1 -11   4 3477.54 2296.04   7
  -1 -11   4 3086.18 1568.13   3
   1 -11  -4 2690.78 1499.08   6
  -1 -11   3 66381.3 6008.11   3
   1 -11  -3 63459.9 6353.49   3
   1 -11  -2 11320.5 3115.08   3
  -1 -11   2 9272.04 2630.53   3
   1 -11  -1 311668. 13708.0   3
  -1 -11   1 311762. 13022.1   3
  -1 -11   0 8556.82 2662.82   3
   1 -11   0 6694.16 2437.18   3
   1 -11   1 254334. 12331.8   3
  -1 -11  -1 248742. 11796.5   3
   1 -11   2 473.101 869.871   3
  -1 -11  -2 3898.87 1540.19   3
   1 -11   3 315828. 13740.8   3
   1 -11   4 22614.8 3926.24   3
   1 -11   5 427019. 15911.1   3
   1 -11   6 13049.9 3127.24   3
   1 -11   7 143636. 9119.81   3
   1 -11  14 1811.97 1206.51   3
   1 -11  15 66662.9 4754.91   3
   1 -11  16-207.782 485.680   3
  -1 -12  15 22023.1 2222.07   3
  -1 -12  14 53250.0 3899.76   3
  -1 -12  13-145.279 735.567   3
  -1 -12  12 48681.0 4347.42   3
  -1 -12  11 19958.6 3208.55   3
  -1 -12  10 79681.7 5991.93   3
   1 -12 -10 78314.9 5891.05   6
   1 -12  -9 53362.6 4992.62   6
  -1 -12   9 48472.7 4820.98   3
  -1 -12   8 6910.86 2064.90   3
   1 -12  -8 9964.47 2398.48   6
  -1 -12   7 135130. 8291.67   3
   1 -12  -7 140598. 8462.12   6
   1 -12  -6 418.090 885.901   6
  -1 -12   6 125.013 1075.29   3
   1 -12  -5 55839.4 5523.02   6
  -1 -12   5 59122.4 5583.43   3
  -1 -12   4 65079.9 6093.91   3
   1 -12  -4 63027.1 5870.86   6
   1 -12  -3 55319.9 5610.00   6
   1 -12  -3 43417.0 5566.38   3
  -1 -12   3 49745.7 5338.08   3
  -1 -12   2 149704. 9193.42   3
   1 -12  -2 156156. 10058.5   3
  -1 -12   1 15295.3 3582.69   3
   1 -12  -1 18438.3 3997.46   3
   1 -12   0 254116. 12859.2   3
  -1 -12   0 271029. 12518.6   3
  -1 -12  -1 5141.76 1687.45   3
   1 -12   1 2569.88 2446.52   3
   1 -12   2 222197. 11849.9   3
   1 -12   3 20214.8 4181.35   3
   1 -12   4 147582. 9624.66   3
   1 -12   5 79897.3 7264.61   3
   1 -12   6 7861.45 2308.66   3
   1 -12   7 114947. 8212.17   3
   1 -12   8 1154.64 1858.84   3
   1 -12   9 228784. 11184.7   3
   1 -12  10 53910.6 5331.62   3
   1 -12  11 111422. 7151.83   3
   1 -12  12 92534.7 6325.87   3
   1 -12  13 53188.7 4464.82   3
   1 -12  14 96692.6 5516.81   3
   1 -12  15 9340.90 1583.00   3
  -1 -13  13 22663.6 2402.40   3
  -1 -13  12 57611.8 4210.91   3
  -1 -13  11 19225.4 2609.44   3
  -1 -13  10 185209. 8513.49   3
   1 -13  -9 21872.3 2964.10   6
  -1 -13   9 23076.8 3226.44   3
   1 -13  -8 421334. 13423.1   6
  -1 -13   8 383412. 13188.3   3
  -1 -13   7 5568.01 2212.25   3
   1 -13  -7 4757.68 1613.59   6
   1 -13  -6 551094. 16240.2   6
  -1 -13   6 522354. 16230.4   3
   1 -13  -5 1377.22 1593.14   6
  -1 -13   5 3626.96 1839.35   3
  -1 -13   4 542281. 17148.2   3
   1 -13  -4 546150. 16927.8   6
  -1 -13   3 4573.41 2367.88   3
   1 -13  -3 2409.59 1644.82   6
   1 -13  -2 383084. 15712.6   3
  -1 -13   2 383264. 14670.5   3
   1 -13  -2 384816. 14685.4   6
  -1 -13   1 71419.5 6466.56   3
   1 -13  -1 71601.2 6976.68   3
  -1 -13   0 68403.7 6366.15   3
   1 -13   0 64922.7 6718.17   3
   1 -13   1 104833. 8361.20   3
   1 -13   2 2810.04 2223.35   3
   1 -13   3 13460.2 3187.81   3
   1 -13   4 61288.0 6224.87   3
   1 -13   5 29288.0 4417.21   3
   1 -13   6 260570. 12238.9   3
   1 -13   7 1054.43 1785.76   3
   1 -13   8 212767. 10400.5   3
   1 -13   9-1310.33 1347.46   3
   1 -13  10 141100. 7762.36   3
   1 -13  11 4520.93 1402.86   3
   1 -13  12 70190.1 4882.67   3
   1 -13  13 941.714 577.746   3
   1 -13  14 7023.60 1277.21   3
  -1 -14  12 92226.2 4335.18   3
  -1 -14  11 1944.54 755.908   3
  -1 -14  10 74150.2 4765.82   3
  -1 -14   9 17432.3 2588.02   3
  -1 -14   8 15932.5 2499.32   3
   1 -14  -8 17897.9 2534.53   6
   1 -14  -7 7639.97 1733.81   6
  -1 -14   7 1262.22 1072.91   3
   1 -14  -6 4866.08 1685.59   6
  -1 -14   6 3221.36 1232.50   3
  -1 -14   5 27245.5 3714.11   3
   1 -14  -5 27852.3 3760.37   6
   1 -14  -4 49111.9 4791.63   6
  -1 -14   4 54182.4 5371.81   3
   1 -14  -3 3175.77 1610.53   6
  -1 -14   3 385.268 1533.72   3
  -1 -14   2 280584. 11968.2   3
   1 -14  -2 276520. 11777.8   6
   1 -14  -1 5742.38 2069.13   6
   1 -14   0 244026. 12090.4   3
   1 -14   1 3124.78 2347.42   3
   1 -14   2 333480. 14060.0   3
   1 -14   3 12145.4 3352.45   3
   1 -14   4 167719. 9755.95   3
   1 -14   5 2632.51 1776.93   3
   1 -14   6 49228.0 5104.98   3
   1 -14   7 19829.2 3207.86   3
   1 -14   8 1153.80 1282.06   3
   1 -14   9 5918.66 1706.40   3
   1 -14  10 80683.7 5329.03   3
   1 -14  11 14300.8 2256.89   3
   1 -14  12 198102. 6896.23   3
  -1 -15  10 65817.7 3574.06   3
  -1 -15   9 63022.6 3893.05   3
  -1 -15   8 113385. 5634.17   3
  -1 -15   7 13636.0 2181.86   3
  -1 -15   6 151227. 7198.27   3
   1 -15  -6 162938. 6942.08   6
  -1 -15   5 534.990 858.349   3
   1 -15  -5 3999.07 1198.08   6
   1 -15  -4 176956. 7984.29   6
  -1 -15   4 157859. 7848.59   3
   1 -15  -3 56413.6 4623.56   6
   1 -15  -2 160145. 8096.60   6
   1 -15  -1 158957. 8155.40   6
   1 -15   0 39647.4 4180.64   6
   1 -15   1 254737. 10540.0   6
   1 -15   1 264594. 11449.5   3
   1 -15   2 1647.28 1914.65   3
   1 -15   3 160306. 8777.30   3
   1 -15   4 2632.14 1669.76   3
   1 -15   5 101954. 6598.35   3
   1 -15   6 33016.4 3569.50   3
   1 -15   7 47857.1 4207.40   3
   1 -15   8 40236.0 3795.05   3
   1 -15   9 647.383 468.950   3
   1 -15  10 26809.9 2503.58   3
   1 -16  -4 3007.48 1187.63   6
   1 -16  -3 22299.8 2419.07   6
   1 -16  -2 924.321 729.700   6
   1 -16  -1 1095.49 753.139   6
   1 -16   0 6093.63 1243.39   6
   1 -16   1 18189.4 2384.28   6
   1 -16   2 8847.76 1771.98   6
   1 -16   3 98350.0 5359.49   6
   1 -16   4 1876.39 852.136   6
   1 -16   5 127322. 5824.80   6
   1 -16   5 141502. 6433.23   3
   1 -16   6 774.791 828.672   3
   1 -16   7 231328. 7372.97   3
   1 -16   8-166.146 279.384   3
   2   0 -21-213.327 372.442   2
   2   0 -20-85.1555 803.703   2
   2   0 -18 92337.9 7507.71   5
   2   0 -17 2110.18 1464.71   5
   2   0 -16 65979.9 6760.67   5
   2   0 -15-13.9726 1321.76   5
   2   0 -14 419505. 16213.0   5
   2   0 -13 1386.26 1713.54   5
   2   0 -13 523.255 1112.37   6
   2   0 -12 464691. 15688.2   6
   2   0 -12 452825. 15725.2   5
  -2   0  10 642257. 11388.2   7
  -2   0   9 837.745 564.915   7
  -2   0   8 791496. 12164.6   7
  -2   0   7-195.640 481.578   7
  -2   0   6 222009. 5677.96   7
   2   0  -5 286.473 151.590   1
  -2   0   5 2.99455 419.307   7
   2   0  -4 2757.35 462.912   1
   2   0  -3 545.531 315.284   1
   2   0  -2 18477.2 1252.74   1
   2   0  -1-273.618 406.035   1
   2   0   0 693475. 8584.00   1
   2   0   1-410.644 487.807   1
   2   0   2 632895. 9038.83   1
   2   0   3 257.258 526.584   1
   2   0   4 474273. 8607.56   1
   2   0   5 253.076 558.459   1
   2   0   6 74492.3 3800.37   1
   2   0   7-148.458 532.738   1
   2   0   8 41077.3 3113.27   1
   2   0   9 619.014 679.708   1
   2   0  10 145770. 6462.29   1
  -2   0 -11-1226.73 1259.29   5
  -2   0 -11-948.312 1204.90   4
   2   0  11 989.697 705.898   1
  -2   0 -12 120453. 7385.43   5
  -2   0 -12 129459. 8267.61   4
  -2   0 -13 1458.47 1723.00   4
  -2   0 -13-566.531 1065.53   5
  -2   0 -14 289740. 12919.8   4
  -2   0 -14 291936. 12101.6   5
  -2   0 -15-273.428 1790.25   4
  -2   0 -15 185.925 416.405   5
  -2   0 -16 125025. 7852.94   5
  -2   0 -16 132835. 8477.22   4
  -2   0 -17-1087.88 701.018   5
  -2   0 -17 1454.80 1413.79   4
  -2   0 -18 115504. 6651.97   5
  -2   0 -19-428.332 423.932   5
   2   1 -22 17029.1 1823.93   2
   2   1 -21 1236.30 1182.45   2
   2  -1 -21 263.177 656.646   2
   2   1 -20 105682. 6672.42   2
   2  -1 -20 102023. 6091.24   2
   2  -1 -19 454.892 743.643   5
   2   1 -18 44575.8 5274.67   5
   2  -1 -18 45533.6 5630.96   5
   2  -1 -17 8833.04 3098.82   5
   2   1 -17 9418.35 3108.05   5
   2  -1 -16 83005.6 7707.37   5
   2   1 -16 83859.9 7291.20   5
   2   1 -15 38584.8 4887.29   5
   2  -1 -15 38845.3 5612.94   5
   2  -1 -14 8972.02 2678.45   5
   2  -1 -14 10070.2 2512.38   6
   2   1 -14 10193.9 2467.20   5
   2  -1 -13 76535.2 6782.10   6
   2   1 -13 72083.0 6410.30   5
   2  -1 -13 72651.2 6847.20   5
   2   1 -12 19860.2 3140.46   5
   2  -1 -12 19999.7 3322.77   5
   2  -1 -12 16201.5 2922.04   6
   2   1 -12 16617.7 3482.76   6
  -2  -1  11 113609. 5481.87   7
  -2  -1  10 169943. 6523.29   7
  -2  -1   9 8483.53 1521.25   7
  -2   1   9 10565.4 1310.42   7
  -2  -1   8 399738. 9415.43   7
  -2   1   8 429020. 8026.16   7
  -2   1   7 2036.14 531.268   7
  -2  -1   7 1974.08 857.875   7
  -2   1   6 191332. 4780.23   7
  -2  -1   6 184265. 5628.75   7
   2   1  -5 3272.15 464.554   1
  -2  -1   5 2907.51 847.427   7
  -2   1   5 2461.96 621.563   7
   2  -1  -4 566451. 5370.01   1
   2   1  -4 578765. 6729.30   1
  -2  -1   4 561704. 9480.00   7
   2  -1  -3 47144.5 1759.77   1
   2   1  -3 48960.6 2166.77   1
   2  -1  -2 237733. 4253.31   1
   2   1  -2 239250. 4979.54   1
   2  -1  -1 497575. 6545.03   1
   2   1  -1 474322. 7349.97   1
   2   1   0 3749.25 825.447   1
   2  -1   0 2698.84 615.924   1
   2  -1   1 24555.5 1651.77   1
   2   1   1 23715.8 1863.72   1
   2  -1   2 59224.8 2736.46   1
   2   1   2 62557.5 3080.69   1
   2  -1   3 352688. 6862.70   1
   2   1   3 365020. 7682.86   1
   2  -1   4 241559. 6056.61   1
   2   1   4 204552. 6082.90   1
   2  -1   5 244795. 6435.56   1
   2   1   5 261103. 7133.33   1
   2   1   6 373734. 8889.29   1
   2  -1   6 349607. 8132.84   1
   2   1   7 443309. 9982.01   1
   2  -1   7 422141. 9468.08   1
   2   1   8 614169. 12317.9   1
   2  -1   8 631810. 12125.1   1
   2   1   9 40178.4 3255.27   1
   2  -1   9 35562.6 3049.61   1
   2  -1  10 481087. 11761.2   1
   2   1  10 493614. 11936.0   1
  -2  -1 -11 1058.20 1039.51   5
   2  -1  11 586.158 455.079   1
  -2   1 -11-321.796 1647.89   4
   2   1  11 2786.62 1010.59   1
  -2   1 -12 147683. 8993.89   4
  -2  -1 -12 152228. 8808.63   4
  -2  -1 -12 146772. 8244.90   5
  -2   1 -12 147283. 7994.88   5
  -2   1 -13 24764.5 3509.85   5
  -2  -1 -13 32354.7 4039.64   5
  -2  -1 -13 22449.4 3696.36   4
  -2   1 -13 25122.0 4137.34   4
  -2  -1 -14 200646. 10198.1   5
  -2   1 -14 193554. 10834.9   4
  -2  -1 -14 194294. 10430.6   4
  -2   1 -14 190389. 9625.10   5
  -2   1 -15 27531.9 3852.83   5
  -2   1 -15 32548.9 4423.86   4
  -2  -1 -15 25593.8 4039.90   4
  -2  -1 -15 36189.8 4319.51   5
  -2  -1 -16 13321.2 2751.77   4
  -2   1 -16 8973.05 2270.14   4
  -2  -1 -16 8449.99 2097.65   5
  -2   1 -16 13648.3 2975.11   5
  -2   1 -17 99443.9 6545.86   5
  -2  -1 -17 96821.4 6734.35   5
  -2  -1 -17 91513.8 6318.30   4
  -2   1 -17 91445.2 6758.89   4
  -2   1 -18-257.204 941.128   5
  -2  -1 -18-506.320 504.495   5
  -2  -1 -19 26281.9 2869.90   5
  -2  -1 -20 10643.8 1625.32   5
   2   2 -22 2742.63 1013.93   2
   2   2 -21 185060. 7591.74   2
   2  -2 -20 2378.99 1357.39   2
   2   2 -20 532.864 1290.67   2
   2  -2 -19 203542. 9201.67   2
   2  -2 -19 219331. 10799.2   5
   2  -2 -18 4341.25 2653.91   5
   2  -2 -17 228568. 12394.7   5
   2   2 -16 46307.9 5576.68   5
   2  -2 -16 50458.6 6045.83   5
   2  -2 -15 115301. 8563.90   6
   2  -2 -15 117475. 9195.49   5
   2   2 -15 110778. 8103.08   5
   2  -2 -14 128989. 9322.78   5
   2  -2 -14 118217. 8568.84   6
   2   2 -14 128113. 8599.33   5
   2  -2 -13 25447.2 4429.33   5
   2  -2 -13 28190.5 3929.44   6
   2   2 -13 26018.1 4058.90   5
   2  -2 -12 112554. 8280.05   5
  -2  -2  12 119456. 6262.69   7
   2  -2 -12 114228. 7790.02   6
   2   2 -12 128400. 8124.56   5
  -2  -2  11 10724.2 1781.74   7
  -2  -2  10 15004.9 2167.25   7
  -2  -2   9 144076. 6276.27   7
  -2  -2   8 87662.4 4729.62   7
  -2  -2   7 358501. 9072.30   7
  -2   2   7 375090. 6220.56   7
  -2  -2   6 34763.9 2697.27   7
  -2   2   6 30346.2 1752.94   7
  -2   2   5 400991. 6339.91   7
  -2  -2   5 383577. 8556.42   7
   2  -2  -4 867.710 371.327   1
  -2  -2   4-53.5276 591.461   7
  -2  -2   3 311197. 7443.80   7
   2  -2  -3 343178. 5421.25   1
   2  -2  -2 22586.7 1447.78   1
   2  -2  -1 168899. 4032.39   1
   2  -2   0 32433.7 1891.51   1
   2   2   1 100992. 4181.11   1
   2  -2   1 98487.8 3415.27   1
   2   2   2 31476.6 2471.44   1
   2  -2   2 28863.4 1960.96   1
   2   2   3 1277.61 823.849   1
   2  -2   3 5917.59 1026.93   1
   2   2   4 93008.3 4397.25   1
   2  -2   4 89377.9 3800.80   1
   2   2   5 34366.0 2814.51   1
   2  -2   5 31123.5 2421.97   1
   2  -2   6 106956. 4614.60   1
   2   2   6 110435. 5131.38   1
   2   2   7 168328. 6532.87   1
   2  -2   7 151244. 5732.69   1
   2  -2   8 31506.1 2788.10   1
   2   2   8 36593.9 3173.92   1
   2   2   9 47472.5 3651.39   1
   2  -2   9 56177.0 3895.31   1
   2  -2  10 6050.50 1368.74   1
   2   2  10 4930.94 1486.61   1
  -2  -2 -11 190036. 9233.91   5
  -2  -2 -11 179946. 8994.59   4
   2  -2  11 181826. 7965.93   1
  -2   2 -11 176539. 9578.26   4
  -2   2 -12 11174.5 2738.65   4
  -2  -2 -12 10938.2 2238.41   5
  -2  -2 -12 8931.75 2381.65   4
  -2  -2 -13 49686.4 5074.49   5
  -2  -2 -13 44448.0 5004.94   4
  -2   2 -13 43123.1 5409.56   4
  -2  -2 -14 45131.2 5035.35   5
  -2   2 -14 40548.1 5301.42   4
  -2  -2 -14 40600.6 4811.84   4
  -2  -2 -15 22891.0 3757.14   5
  -2  -2 -15 20583.2 3699.34   4
  -2   2 -15 18213.6 3475.34   4
  -2   2 -16 13059.9 3128.47   4
  -2  -2 -16 14447.6 3010.54   4
  -2  -2 -16 16330.4 3163.00   5
  -2  -2 -17 1902.72 1217.21   5
  -2   2 -17 1384.18 1230.86   4
  -2  -2 -18 30224.2 3630.92   5
  -2  -2 -19 36882.7 3570.57   5
  -2  -2 -20 11183.0 1645.09   5
   2   3 -21 20083.5 2486.20   2
   2   3 -20 599.110 979.656   2
   2  -3 -19 7624.25 2608.80   5
   2  -3 -18 13116.4 3064.99   5
   2  -3 -17 49311.1 5833.61   5
   2  -3 -16 8525.33 3456.99   5
   2  -3 -16 9687.47 2305.42   6
   2  -3 -15 64487.1 6581.57   6
   2  -3 -15 69673.4 7215.62   5
   2  -3 -14 27341.2 4381.60   6
   2   3 -14 31210.7 4284.69   5
   2  -3 -14 31473.6 4791.93   5
   2  -3 -13 136998. 9634.61   5
  -2  -3  13 151225. 7631.19   7
   2  -3 -13 153911. 9449.34   6
   2   3 -13 162591. 9177.90   5
  -2  -3  12 6858.39 1658.51   7
   2  -3 -12 5597.90 2505.04   5
   2  -3 -12 5804.54 2011.67   6
   2   3 -12 6768.18 1851.72   5
  -2  -3  11 370947. 11403.7   7
  -2  -3  10 39896.5 3788.76   7
  -2  -3   9 142299. 6776.15   7
  -2  -3   8 742.650 595.827   7
  -2  -3   7 7318.69 1532.82   7
  -2  -3   6 21396.3 2455.89   7
  -2   3   5 756.213 345.942   7
  -2  -3   5 876.021 721.417   7
  -2  -3   4 2549.00 841.778   7
  -2  -3   3 372384. 8524.77   7
  -2  -3   2 318.834 725.266   7
   2  -3  -2 675.125 507.117   1
   2  -3  -1 584479. 8344.99   1
   2  -3   0 12998.8 1345.34   1
   2  -3   1 697312. 9623.15   1
   2  -3   2 123457. 4220.12   1
   2   3   3 596661. 11802.8   1
   2  -3   3 637745. 9954.03   1
   2  -3   4 75318.2 3622.97   1
   2   3   4 82088.2 4496.36   1
   2  -3   5 402328. 8676.81   1
   2   3   5 392027. 9844.46   1
   2  -3   6 38824.7 2888.03   1
   2   3   6 41382.5 3393.10   1
   2   3   7 149517. 6467.95   1
   2  -3   7 147927. 5938.37   1
   2   3   8 39316.9 3383.76   1
   2  -3   8 39703.5 3302.83   1
   2  -3   9 20027.3 2446.04   1
   2   3   9 18942.8 2501.96   1
   2   3  10 25662.8 2790.79   1
   2  -3  10 21118.4 2708.98   1
  -2  -3 -10 21821.1 3186.79   5
  -2   3 -10 21401.8 3340.09   4
   2  -3  11 32773.9 3448.16   1
  -2  -3 -11 33722.6 4065.64   5
  -2   3 -11 34999.9 4515.09   4
  -2  -3 -11 35725.8 3961.77   4
  -2  -3 -12 5219.74 1913.41   5
  -2   3 -12 6219.95 2227.75   4
  -2  -3 -12 1666.57 1519.06   4
  -2  -3 -13 67298.0 6023.98   5
  -2   3 -13 61659.0 6230.33   4
  -2  -3 -13 66037.4 5858.49   4
  -2  -3 -14 4991.70 1953.65   5
  -2   3 -14 1607.72 1639.68   4
  -2  -3 -14 3780.30 1473.65   4
  -2  -3 -15 157350. 9297.72   5
  -2   3 -15 135550. 9224.77   4
  -2  -3 -16 1329.58 1485.78   5
  -2   3 -16-169.266 1867.62   4
  -2  -3 -17 209099. 9939.11   5
  -2  -3 -18-1718.66 897.374   5
  -2  -3 -19 81174.1 5122.26   5
  -2  -3 -20 817.498 845.854   5
   2   4 -21 64452.8 4230.03   2
   2   4 -20 2416.47 1186.88   2
   2   4 -19 158447. 8538.88   2
   2  -4 -19 163208. 8898.97   5
   2  -4 -18 19612.7 3705.69   5
   2  -4 -17 222703. 11940.0   5
   2  -4 -16 59938.4 6229.89   6
   2  -4 -16 68487.1 7077.44   5
   2  -4 -15 214982. 11342.4   6
   2  -4 -15 223018. 12627.3   5
   2  -4 -14 138764. 9070.44   6
  -2  -4  14 115691. 7145.26   7
   2  -4 -14 136324. 9772.06   5
   2  -4 -13 13689.3 3636.02   5
   2  -4 -13 15600.6 3201.76   6
  -2  -4  13 17804.5 2761.28   7
   2  -4 -12 277230. 13188.8   5
  -2  -4  12 296280. 11280.4   7
   2  -4 -12 268009. 12056.8   6
   2  -4 -11-1578.30 1343.71   6
  -2  -4  11 1719.88 954.097   7
  -2  -4  10 157707. 7744.39   7
  -2  -4   9 43519.5 4001.64   7
  -2  -4   8 259157. 9588.93   7
  -2  -4   7 137338. 6690.68   7
  -2  -4   6 125526. 6039.69   7
  -2  -4   5 342657. 9487.45   7
  -2  -4   4 12765.6 1955.49   7
  -2  -4   3 55297.1 3549.85   7
  -2  -4   2 12499.6 1762.68   7
   2  -4  -1 346920. 7296.64   1
  -2  -4   1 322316. 8087.65   7
   2  -4   0 151960. 4906.92   1
   2  -4   1 7660.10 1287.78   1
   2  -4   2 292601. 7224.74   1
   2  -4   3 22791.1 2147.38   1
   2   4   4 170671. 7014.33   1
   2  -4   4 187911. 6269.71   1
   2   4   5 32089.2 3124.77   1
   2  -4   5 31298.5 2702.88   1
   2   4   6 121633. 6068.62   1
   2  -4   6 125158. 5562.19   1
   2  -4   7 101592. 5255.92   1
   2   4   7 99529.8 5537.96   1
   2  -4   8 10867.4 1908.36   1
   2   4   8 12987.1 2131.78   1
   2   4   9 135158. 6733.93   1
   2  -4   9 139832. 6805.98   1
   2   4  10 17150.6 2670.86   1
  -2   4 -10 10655.5 2448.00   4
  -2  -4 -10 16382.1 2827.46   5
   2  -4  10 11904.5 2175.85   1
  -2  -4 -11 116084. 7620.14   5
  -2   4 -11 115016. 8098.74   4
  -2  -4 -12 28428.2 4074.19   5
  -2   4 -12 27431.9 4068.52   4
  -2  -4 -13 39875.5 4770.39   5
  -2   4 -13 44507.9 5449.34   4
  -2  -4 -14 91551.2 7144.96   5
  -2   4 -14 87527.8 7539.78   4
  -2   4 -15 4324.34 2077.93   4
  -2  -4 -15 7931.78 2093.36   5
  -2  -4 -16 54882.6 5485.79   5
  -2  -4 -17 5644.95 1749.34   5
  -2  -4 -18 46990.9 4308.56   5
  -2  -4 -19 20227.7 2557.96   5
  -2  -4 -20 14194.4 1781.16   5
   2   5 -21-4.94718 695.354   2
   2   5 -20 56748.3 4313.04   2
   2  -5 -19 8355.44 2136.02   5
   2   5 -19 6022.35 1627.88   2
   2  -5 -18 41819.5 4737.77   5
   2  -5 -17-114.630 1414.38   5
   2  -5 -17 7854.99 2529.86   6
   2  -5 -16 7794.69 2711.40   5
   2  -5 -16 8234.08 2609.62   6
   2  -5 -15-549.374 1451.74   5
   2  -5 -15 676.449 1014.85   6
   2  -5 -14 3864.22 1771.96   5
  -2  -5  14-374.914 1539.64   7
   2  -5 -14 3369.24 1890.54   6
   2  -5 -13 342.873 1046.72   5
  -2  -5  13-271.802 1110.48   7
   2  -5 -13 488.410 1355.43   6
   2  -5 -12 2409.25 988.985   5
  -2  -5  12 933.539 1151.61   7
   2  -5 -12 969.121 766.995   6
   2  -5 -11 23779.1 3827.89   6
   2  -5 -11 19761.6 3453.85   5
  -2  -5  11 22624.9 3295.31   7
   2  -5 -10 127430. 7779.03   6
  -2  -5  10 132970. 7614.19   7
  -2  -5   9 956.402 919.603   7
  -2  -5   8 284653. 10660.2   7
  -2  -5   7 23613.2 3102.96   7
  -2  -5   6 533907. 13609.2   7
  -2  -5   5 732.306 905.495   7
  -2  -5   4 523856. 12030.3   7
  -2  -5   3 382.114 972.392   7
  -2  -5   2 376410. 9346.09   7
  -2  -5   1 283.021 576.277   7
  -2  -5   0 255041. 7288.10   7
  -2  -5  -1 68552.8 3689.67   7
   2  -5   2 22485.8 2306.60   1
   2  -5   3 71604.8 4023.90   1
   2  -5   4 166756. 6342.09   1
   2  -5   5 19810.4 2277.56   1
   2   5   5 22633.5 2970.94   1
   2   5   6 532051. 13351.3   1
   2  -5   6 501770. 11933.4   1
   2   5   7 17944.3 2444.31   1
   2  -5   7 15733.3 2307.72   1
   2   5   8 546569. 13836.5   1
   2  -5   8 485843. 12849.4   1
   2   5   9 21803.5 2864.91   1
  -2  -5  -9 22328.5 3428.92   5
  -2   5  -9 17858.5 3026.01   4
   2   5  10 395833. 12032.3   1
  -2  -5 -10 401484. 13941.8   5
  -2   5 -10 411409. 14848.1   4
  -2  -5 -11 2199.80 1398.59   5
  -2   5 -11 1181.42 1399.90   4
  -2   5 -12 335780. 14137.4   4
  -2  -5 -12 326490. 13139.6   5
  -2  -5 -13-11.4948 1222.30   5
  -2   5 -13 2663.40 1547.15   4
  -2  -5 -14 173196. 9735.91   5
  -2   5 -14 161114. 9952.60   4
  -2  -5 -15 821.756 1571.07   5
  -2   5 -15 1197.02 1913.63   4
  -2  -5 -16 56277.2 5306.12   5
  -2  -5 -17 3873.70 1785.33   5
  -2  -5 -18-293.099 790.347   5
  -2  -5 -19 562.097 671.902   5
   2   6 -20 2407.92 908.193   2
   2   6 -19 59387.7 4641.07   2
   2  -6 -19 61384.5 4715.90   5
   2  -6 -18 18909.9 2957.44   5
   2   6 -18 18746.0 2830.48   2
   2  -6 -17 103775. 6997.74   6
   2   6 -17 99326.8 7134.24   2
   2  -6 -17 105665. 7450.74   5
   2  -6 -16 231318. 11184.4   6
   2  -6 -16 229377. 11661.7   5
   2  -6 -15 51137.6 5397.12   6
   2  -6 -15 45509.6 5533.10   5
   2  -6 -14 432698. 15677.4   6
   2  -6 -14 448306. 17038.4   5
  -2  -6  13-299.996 1046.86   7
   2  -6 -13 1150.71 1294.73   6
   2  -6 -12 532944. 18069.2   5
   2  -6 -12 546575. 17339.4   6
  -2  -6  12 568330. 17541.3   7
  -2  -6  11 15163.1 2934.84   7
   2  -6 -11 16722.8 3718.53   5
   2  -6 -11 10729.3 2474.51   6
  -2  -6  10 378556. 13615.2   7
   2  -6 -10 334788. 13005.6   6
  -2  -6   9 128996. 7780.06   7
   2  -6  -9 115990. 7342.00   6
  -2  -6   8 458682. 14354.5   7
  -2  -6   7 25109.9 3352.00   7
  -2  -6   6 15161.3 2442.96   7
  -2  -6   5 50201.6 4360.94   7
  -2  -6   4 4322.80 1366.61   7
  -2  -6   3 24083.4 2785.48   7
  -2  -6   2 80926.4 4660.21   7
  -2  -6   1 7131.83 1349.84   7
  -2  -6   0 75205.5 4118.31   7
  -2  -6  -1 21574.1 2197.70   7
  -2  -6  -2 293551. 7722.92   7
  -2  -6  -3 3402.97 912.355   7
  -2  -6  -4 133363. 5039.78   7
   2   6   6 142691. 7427.74   1
   2   6   7 481.334 563.682   1
   2   6   8 8742.66 2159.53   1
  -2  -6  -8 10032.8 2368.77   5
  -2   6  -8 9177.68 2050.06   4
   2   6   9 104056. 6321.12   1
  -2   6  -9 96413.2 7076.72   4
  -2  -6  -9 90087.0 6617.54   5
  -2  -6 -10-1054.85 1681.53   5
  -2   6 -10 419.309 732.897   4
  -2  -6 -11 30298.9 4276.78   5
  -2   6 -11 27891.6 4163.30   4
  -2  -6 -12 106642. 7674.41   5
  -2   6 -12 111296. 8147.22   4
  -2   6 -13 1885.52 1726.66   4
  -2  -6 -13 4694.17 2248.51   5
  -2  -6 -14 175055. 9742.22   5
  -2  -6 -15 2076.91 1953.36   5
  -2  -6 -16 107081. 7286.74   5
  -2  -6 -17 3637.12 1712.78   5
  -2  -6 -18 123445. 6443.73   5
  -2  -6 -19 28807.1 2639.19   5
   2   7 -20 22055.7 2136.38   2
   2   7 -19 7236.09 1573.19   2
   2   7 -18 68572.9 5081.48   2
   2  -7 -18 69994.7 5110.70   5
   2  -7 -17 24307.6 3288.58   6
   2  -7 -17 27258.4 3735.08   5
   2   7 -17 27233.5 3386.03   2
   2   7 -16 75234.2 6129.13   2
   2  -7 -16 70395.8 6206.84   5
   2  -7 -16 69209.7 5923.17   6
   2   7 -15 65564.0 5849.91   2
   2  -7 -15 73148.1 6218.02   6
   2  -7 -15 73948.1 6670.38   5
   2  -7 -14 1687.61 2233.87   5
   2  -7 -14 2281.96 1656.63   6
   2  -7 -13 102494. 7792.68   6
   2  -7 -13 93207.2 7431.56   5
  -2  -7  12 2528.08 1616.47   7
   2  -7 -12-1285.62 1649.18   6
  -2  -7  11 93809.0 7337.28   7
   2  -7 -11 86932.4 6948.02   6
  -2  -7  10 130814. 8488.05   7
   2  -7 -10 127269. 8190.65   6
  -2  -7   9 152188. 8827.07   7
   2  -7  -9 151948. 8716.09   6
  -2  -7   8 126669. 7991.30   7
   2  -7  -8 127014. 7747.42   6
  -2  -7   7 4890.37 1952.55   7
  -2  -7   6 139906. 7896.30   7
  -2  -7   5 31752.0 3794.96   7
  -2  -7   4 225882. 9259.65   7
  -2  -7   3 166356. 7587.29   7
  -2  -7   2 68555.3 4662.58   7
  -2  -7   1 421044. 10814.4   7
  -2  -7   0 534.066 603.466   7
  -2  -7  -1 451755. 10443.7   7
  -2  -7  -2 180.955 487.949   7
  -2  -7  -3 439907. 9631.63   7
   2   7   6 192220. 8999.00   1
   2   7   7 90029.5 6229.02   1
  -2  -7  -7 75491.3 5993.33   5
  -2   7  -7 80977.6 6016.44   4
  -2  -7  -8 166859. 9046.42   5
  -2   7  -8 169892. 8990.22   4
   2   7   8 189368. 8836.10   1
  -2  -7  -9 4706.69 2230.33   5
  -2   7  -9 5993.59 2003.07   4
   2   7   9 3298.26 1813.89   1
  -2  -7 -10 292987. 12321.1   5
  -2   7 -10 328016. 13285.6   4
  -2  -7 -11 3237.27 1775.16   5
  -2   7 -11 3536.63 1753.56   4
  -2  -7 -12 83094.4 6853.30   5
  -2  -7 -13 39984.0 4704.29   5
  -2  -7 -14 53662.3 5542.35   5
  -2  -7 -15 161569. 8806.33   5
  -2  -7 -16 8229.38 2296.23   5
  -2  -7 -17 83781.2 5572.73   5
  -2  -7 -18 1411.39 779.397   5
  -2  -7 -19 88954.6 4069.74   5
   2   8 -19 122610. 4918.86   2
   2   8 -18 3983.10 1378.69   2
   2   8 -17 142092. 7038.43   2
   2  -8 -17 151231. 7391.31   6
   2   8 -16 1931.70 1146.58   2
   2  -8 -16-722.292 681.155   6
   2   8 -15 83525.1 6164.84   2
   2  -8 -15 99689.9 6958.13   6
   2   8 -14 485.122 819.454   2
   2  -8 -14-2311.47 1355.73   6
   2   8 -13 4706.54 1938.90   2
   2  -8 -13 5251.85 2107.61   6
   2   8 -12 378.003 1058.39   2
   2  -8 -12-718.815 1640.97   6
  -2  -8  11 983.021 1034.56   7
   2   8 -11-168.191 1606.09   2
   2  -8 -11 931.374 1205.78   6
   2  -8 -10 4843.07 2081.66   6
   2   8 -10 8403.47 2131.30   2
  -2  -8  10 5657.24 1954.81   7
  -2  -8   9 86482.9 7207.71   7
   2  -8  -9 84632.5 6740.02   6
  -2  -8   8 12171.4 2793.42   7
   2  -8  -8 9981.91 2564.19   6
   2  -8  -7 348681. 13041.8   6
  -2  -8   7 390910. 14053.7   7
   2  -8  -6-1924.98 1032.25   6
  -2  -8   6 1964.21 1424.07   7
  -2  -8   5 560981. 15814.9   7
   2  -8  -5 513286. 15489.7   6
  -2  -8   4 2424.69 1348.55   7
  -2  -8   3 427694. 12810.9   7
  -2  -8   2 3739.57 1280.53   7
  -2  -8   1 373029. 11175.6   7
  -2  -8   0 21918.2 2660.02   7
  -2  -8  -1 186483. 7270.22   7
  -2  -8  -5 89866.4 6421.63   5
  -2  -8  -6 3423.28 1338.07   5
   2   8   6 6446.82 1930.04   1
   2   8   7 151920. 8340.70   1
  -2  -8  -7 123788. 7853.32   5
  -2   8  -7 141621. 7942.29   4
   2   8   8 1299.89 992.771   1
  -2  -8  -8 3086.38 1235.52   5
  -2  -8  -9 157039. 9072.77   5
   2   8   9 152042. 8046.03   1
  -2  -8 -10 1292.08 1912.56   5
  -2  -8 -11 213581. 10623.4   5
  -2  -8 -12 994.192 1545.81   5
  -2  -8 -13 33284.4 4295.48   5
  -2  -8 -14 6182.75 2066.04   5
  -2  -8 -15 2733.27 1385.67   5
  -2  -8 -16-1293.69 830.097   5
  -2  -8 -17 12260.8 2053.54   5
  -2  -8 -18 11915.8 1638.72   5
   2   9 -17 8645.30 1757.54   2
   2   9 -16 12903.6 2191.01   2
   2  -9 -16 15305.7 2731.52   6
   2   9 -15 71080.0 5081.09   2
   2  -9 -15 74688.0 5725.29   6
   2   9 -14 9622.65 2210.39   2
   2  -9 -14 11031.2 2448.03   6
   2   9 -13 183013. 8814.43   2
   2  -9 -13 196466. 10074.4   6
   2  -9 -12 2287.27 1639.80   6
   2  -9 -11 96334.8 7362.93   6
  -2  -9  10 7899.48 2583.37   7
   2  -9 -10 6801.32 2227.22   6
   2  -9  -9 88289.9 7099.37   6
  -2  -9   9 98699.3 8048.43   7
  -2  -9   8 41214.8 5113.64   7
   2  -9  -8 36697.0 4431.30   6
  -2  -9   7 11.5962 1337.04   7
   2  -9  -7 1896.40 1519.17   6
   2  -9  -6 201985. 10269.2   6
  -2  -9   6 199561. 10076.1   7
  -2  -9   5 21094.2 3549.53   7
   2  -9  -5 18788.3 3163.78   6
   2  -9  -4 27297.8 3865.85   6
   2  -9  -4 30751.3 4225.00   3
  -2  -9   4 29113.1 3697.84   7
  -2  -9   3 140135. 7710.09   7
   2  -9  -3 138864. 8435.15   3
   2  -9  -2 114206. 7742.61   3
  -2  -9   2 122991. 6989.96   7
  -2  -9   1 393792. 12007.0   7
   2  -9  -1 395196. 14117.1   3
  -2  -9   0 7343.62 1676.01   7
   2  -9   0 8017.45 2566.11   3
   2  -9   1 363090. 13681.3   3
   2  -9   2 12958.4 2910.17   3
   2  -9   3 563731. 17215.9   3
  -2  -9  -4 70199.1 5541.87   5
  -2  -9  -5 260425. 11083.1   5
  -2  -9  -6 149791. 8600.59   5
   2   9   6 172814. 9431.93   1
   2   9   7 363984. 13317.5   1
  -2  -9  -7 334938. 12870.8   5
   2   9   8 176532. 9050.96   1
  -2  -9  -8 181185. 9621.68   5
  -2  -9  -9 5263.07 2001.24   5
  -2  -9 -10 54925.8 5483.14   5
  -2  -9 -11 2232.84 1439.38   5
  -2  -9 -12 75635.9 6175.96   5
  -2  -9 -13 44641.7 4645.78   5
  -2  -9 -14 12333.4 2895.04   5
  -2  -9 -15 100365. 6125.26   5
  -2  -9 -16 941.384 923.295   5
  -2  -9 -17 73373.7 4062.07   5
   2 -10 -16 133744. 6125.96   6
   2 -10 -15 53113.4 4599.38   6
   2 -10 -14 228149. 9815.90   6
   2 -10 -13 16909.1 3036.61   6
  -2 -10  12 242912. 10119.0   3
   2 -10 -12 257730. 11513.3   6
  -2 -10  11 678.837 676.208   3
   2 -10 -11 2934.90 1926.71   6
   2 -10 -10 449284. 15724.3   6
  -2 -10  10 441867. 14235.1   3
  -2 -10   9 3515.49 1710.98   3
   2 -10  -9 1457.29 1335.52   6
   2 -10  -8 209558. 10768.4   6
  -2 -10   8 243059. 12176.4   7
  -2 -10   8 221543. 10133.6   3
  -2 -10   7 76338.4 6073.38   3
   2 -10  -7 65175.6 6088.68   6
  -2 -10   7 71617.6 6658.52   7
   2 -10  -6 131623. 8666.60   6
  -2 -10   6 146551. 8916.44   7
  -2 -10   6 135576. 7929.85   3
  -2 -10   5 108054. 7374.76   7
   2 -10  -5 103120. 7610.12   6
  -2 -10   5 107412. 7115.96   3
  -2 -10   4 1254.94 1251.94   7
   2 -10  -4 1081.72 2227.17   3
   2 -10  -4 877.277 979.457   6
  -2 -10   4 1612.64 1361.89   3
   2 -10  -3 76196.3 6825.37   3
  -2 -10   3 79796.0 5916.49   7
  -2 -10   3 82793.8 6229.54   3
   2 -10  -2 26360.6 4278.97   3
  -2 -10   2 23562.0 3190.65   7
  -2 -10   2 22696.7 3351.79   3
   2 -10  -1 116794. 8204.48   3
  -2 -10   1 119895. 7575.46   3
   2 -10   0 76725.6 6744.11   3
  -2 -10   0 76125.0 6124.95   3
   2 -10   1 11748.3 3023.06   3
   2 -10   2 260376. 12317.1   3
   2 -10   3-111.546 1608.39   3
   2 -10   4 170439. 10006.0   3
   2 -10   5 34976.2 4621.78   3
   2  10   6 5308.97 2149.94   1
  -2 -10  -6 4134.03 2215.11   5
  -2 -10  -7 49912.0 4944.64   5
  -2 -10  -8 11033.7 2790.71   5
  -2 -10  -9 12719.0 2893.48   5
  -2 -10 -10 4195.11 1856.68   5
  -2 -10 -11 13308.1 2702.21   5
  -2 -10 -12 41643.6 4390.39   5
  -2 -10 -13 2552.38 1412.26   5
  -2 -10 -14 87653.8 5469.24   5
  -2 -10 -15 1601.60 1040.01   5
  -2 -10 -16 79316.4 4074.62   5
   2 -10  16 84284.5 4874.47   3
   2 -11 -15 12553.5 1996.17   6
   2 -11 -14 5949.43 1568.34   6
   2 -11 -13 8577.54 2048.16   6
   2 -11 -12 17044.1 2732.43   6
  -2 -11  11 480.324 630.993   3
   2 -11 -11 3464.49 1637.91   6
   2 -11 -10 140961. 8667.65   6
  -2 -11  10 132443. 7596.47   3
  -2 -11   9 8016.69 2069.47   3
   2 -11  -9 7894.77 2554.54   6
   2 -11  -8 251310. 11864.5   6
  -2 -11   8 248468. 10891.2   3
   2 -11  -7 2942.51 1552.87   6
  -2 -11   7 4259.67 1618.98   3
   2 -11  -6 274766. 12569.8   6
  -2 -11   6 276420. 11743.5   3
   2 -11  -5 59454.6 6041.70   6
  -2 -11   5 53530.9 5388.86   7
  -2 -11   5 58335.1 5647.63   3
  -2 -11   4 349264. 13260.6   3
   2 -11  -4 329534. 14023.0   6
   2 -11  -3 12383.0 3027.41   3
   2 -11  -3 18348.3 3374.10   6
  -2 -11   3 12296.0 2618.62   3
   2 -11  -2 192694. 10921.2   3
  -2 -11   2 200944. 10184.4   3
  -2 -11   1 4713.42 1687.32   3
   2 -11  -1 2404.80 1932.98   3
  -2 -11   0 81774.6 6468.49   3
   2 -11   0 76077.1 7009.00   3
   2 -11   1 16390.8 3558.08   3
   2 -11   2 3621.92 2126.50   3
   2 -11   3-1166.09 1550.66   3
   2 -11   4 5556.30 2552.58   3
   2 -11   5 27745.7 4403.96   3
   2 -11   6 216430. 11484.6   3
   2 -11   7 2252.87 1389.07   3
  -2 -11  -8 297809. 11266.2   5
   2 -11   8 292725. 12951.0   3
   2 -11   9 7080.21 2497.73   3
  -2 -11  -9 4819.98 1920.89   5
  -2 -11 -10 428444. 13048.2   5
   2 -11  10 371720. 13945.8   3
   2 -11  11 1582.18 1394.85   3
  -2 -11 -11-305.191 862.766   5
  -2 -11 -12 255969. 9398.61   5
   2 -11  12 256105. 10622.5   3
   2 -11  13 8474.95 2000.64   3
  -2 -11 -13 8648.54 1847.00   5
  -2 -11 -14 144838. 5833.32   5
   2 -11  14 144167. 6980.14   3
   2 -11  15 2104.81 1091.71   3
   2 -12 -14 115470. 5283.40   6
   2 -12 -13 23779.1 2802.58   6
   2 -12 -12 226161. 9282.93   6
   2 -12 -11 2295.10 877.022   6
   2 -12 -10 188735. 9392.35   6
  -2 -12  10 180209. 8348.84   3
   2 -12  -9 18809.9 3178.48   6
  -2 -12   9 16964.5 2737.16   3
   2 -12  -8 124276. 8301.07   6
  -2 -12   8 121298. 7514.15   3
   2 -12  -7 156735. 9305.14   6
  -2 -12   7 155960. 8566.24   3
  -2 -12   6 60780.8 5461.21   3
   2 -12  -6 51696.7 5685.63   6
  -2 -12   5 197485. 9993.99   3
   2 -12  -5 187245. 10473.4   6
   2 -12  -4 8180.51 2463.38   6
  -2 -12   4 9158.96 2237.46   3
   2 -12  -3 203310. 11282.0   6
  -2 -12   3 202067. 10322.2   3
  -2 -12   2 31519.4 4253.55   3
   2 -12  -2 36774.6 5218.83   3
  -2 -12   1 76195.6 6475.91   3
   2 -12  -1 78463.5 7298.74   3
   2 -12   0 27552.5 4675.10   3
   2 -12   1 56646.9 6185.49   3
   2 -12   2 137524. 9435.09   3
   2 -12   3 47614.4 5867.74   3
   2 -12   4 122581. 8888.70   3
   2 -12   5 112843. 8263.64   3
   2 -12   6 77948.2 6907.20   3
   2 -12   7 75000.4 6725.73   3
   2 -12   8 47192.3 5079.25   3
   2 -12   9 63571.7 5747.91   3
   2 -12  10 470.769 982.848   3
   2 -12  11 25018.4 3354.28   3
   2 -12  12 11263.0 2282.24   3
   2 -12  13 9356.47 1816.25   3
   2 -12  14 36039.0 3077.01   3
   2 -13 -12 7814.98 1446.72   6
   2 -13 -11 125934. 6576.93   6
   2 -13 -10 16477.1 2855.62   6
   2 -13  -9 57907.1 5086.30   6
   2 -13  -8 7130.61 1860.32   6
  -2 -13   8 4003.06 1383.34   3
   2 -13  -7 18727.8 3005.66   6
  -2 -13   7 14519.9 2476.23   3
   2 -13  -6 38072.1 4617.16   6
  -2 -13   6 39161.6 4225.19   3
  -2 -13   5 46966.1 4668.24   3
   2 -13  -5 50698.9 5355.56   6
  -2 -13   4 29153.5 3754.94   3
   2 -13  -4 32818.5 4461.60   6
  -2 -13   3 149000. 8535.65   3
   2 -13  -3 145254. 9244.51   6
   2 -13  -2 37414.6 5055.92   6
   2 -13  -1 449763. 16923.4   3
   2 -13   0 3621.97 2683.33   3
   2 -13   1 641241. 20151.5   3
   2 -13   2-13.3066 1704.88   3
   2 -13   3 319734. 14026.3   3
   2 -13   4 62.6937 1598.21   3
   2 -13   5 346564. 14116.7   3
   2 -13   6 17569.8 3697.73   3
   2 -13   7 75227.9 6199.35   3
   2 -13   8 10004.4 2656.44   3
   2 -13   9 189.879 1381.36   3
   2 -13  10 6005.48 1642.31   3
   2 -13  11 22130.5 2962.05   3
   2 -13  12 7241.23 1451.19   3
   2 -13  13 81503.0 4222.87   3
   2 -14 -11 12644.7 1677.52   6
   2 -14 -10 21089.9 2477.62   6
   2 -14  -9 87313.6 5381.39   6
   2 -14  -8 3384.71 1318.04   6
   2 -14  -7 143138. 7694.75   6
   2 -14  -6-2595.88 1614.49   6
  -2 -14   6-407.598 442.820   3
  -2 -14   5 307223. 10711.7   3
   2 -14  -5 312864. 12155.7   6
   2 -14  -4 3243.04 1359.82   6
   2 -14  -3 224133. 10705.5   6
   2 -14  -2 2507.29 1987.53   6
   2 -14  -1 137346. 8681.22   6
   2 -14   0 12814.9 3044.34   6
   2 -14   0 9716.31 2877.50   3
   2 -14   1 44159.4 5152.09   3
   2 -14   2 11283.7 3108.58   3
   2 -14   3-215.544 1386.01   3
   2 -14   4 25911.3 3883.26   3
   2 -14   5 17380.8 3236.70   3
   2 -14   6 1506.82 1424.66   3
   2 -14   7 75362.6 5578.37   3
   2 -14   8 5414.60 1584.73   3
   2 -14   9 135032. 6697.78   3
   2 -14  10 2748.59 1273.43   3
   2 -14  11 83033.0 4448.18   3
   2 -15  -9 24742.0 2178.57   6
   2 -15  -8 147739. 6116.58   6
   2 -15  -7 6812.42 1568.45   6
   2 -15  -6 138256. 6764.18   6
   2 -15  -5 2042.10 1245.97   6
   2 -15  -4 141531. 7355.91   6
   2 -15  -3 21788.7 3107.49   6
   2 -15  -2 117844. 7029.67   6
   2 -15  -1 158853. 8216.32   6
   2 -15   0 1260.01 1082.81   6
   2 -15   1 222905. 9817.40   6
   2 -15   2 64.6896 1484.38   3
   2 -15   2 1441.16 843.968   6
   2 -15   3 204598. 9167.97   6
   2 -15   3 205223. 9341.54   3
   2 -15   4 68160.1 5324.68   3
   2 -15   5 171575. 7972.60   3
   2 -15   6 102260. 5933.48   3
   2 -15   7 71079.8 4701.80   3
   2 -15   8 152590. 6331.09   3
   2 -15   9 3576.12 1274.00   3
   2 -16  -5 9322.46 1520.21   6
   2 -16  -4 1606.31 725.622   6
   2 -16  -3 3986.27 1091.27   6
   2 -16  -2 30719.0 3058.44   6
   2 -16  -1 6869.90 1418.01   6
   2 -16   0 53552.5 4028.18   6
   2 -16   1 5488.46 1591.57   6
   2 -16   2 84354.0 4981.68   6
   2 -16   3 1141.15 776.725   6
   2 -16   4 83103.6 4613.56   6
   2 -16   5 175.180 364.456   6
   2 -16   6 38787.2 2828.39   6
   3   0 -21 93136.9 4779.29   2
   3   0 -20 1140.12 1237.90   2
   3   0 -19 127434. 7779.04   2
   3   0 -18 132.917 1376.42   2
   3   0 -17 105970. 8336.55   2
   3   0 -16-1267.07 1533.24   2
   3   0 -15 74510.2 7505.38   5
   3   0 -14-310.801 1919.41   5
   3   0 -13 7149.48 2516.71   5
   3   0 -13 7015.34 2428.40   6
   3   0 -12 1503.54 1618.45   5
   3   0 -12 71.8919 1016.97   6
   3   0 -11 85801.8 6792.19   6
   3   0 -11 74523.0 6553.48   5
  -3   0  10-138.461 354.396   7
  -3   0   9 106395. 5048.60   7
  -3   0   8 973.149 456.073   7
  -3   0   7 830706. 13294.0   7
  -3   0   6 245.109 468.554   7
   3   0  -5 966230. 9385.86   1
   3   0  -4-4.79147 372.915   1
   3   0  -3 964344. 11136.6   1
   3   0  -2 135.730 290.636   1
   3   0  -1 542591. 9112.62   1
   3   0   0-301.304 521.613   1
   3   0   1 279451. 7127.15   1
   3   0   2 117.991 733.153   1
   3   0   3 73972.9 4072.84   1
   3   0   4-309.304 656.633   1
   3   0   5 122829. 5672.98   1
   3   0   6-188.684 750.452   1
   3   0   7 362212. 10451.3   1
   3   0   8-1417.90 1176.23   1
   3   0   9 114606. 6464.56   1
  -3   0 -10-1355.84 990.440   5
   3   0  10-342.458 540.130   1
  -3   0 -11 176107. 8762.70   5
  -3   0 -11 183359. 9850.29   4
   3   0  11 161307. 8096.32   1
  -3   0 -12-331.492 862.423   5
  -3   0 -12 822.488 1499.61   4
  -3   0 -13 100558. 6900.41   5
  -3   0 -13 98250.1 7806.35   4
  -3   0 -14-501.536 647.402   5
  -3   0 -14-371.703 1712.01   4
  -3   0 -15 58694.1 5221.86   5
  -3   0 -15 53561.3 5614.25   4
  -3   0 -16-8.54611 293.478   5
  -3   0 -16-10.5030 1085.56   4
  -3   0 -17 5178.06 1416.94   5
  -3   0 -17 6072.35 2016.95   4
   3   1 -21 30651.9 2931.95   2
   3  -1 -20 36414.3 3435.88   2
   3   1 -20 46154.2 4340.56   2
   3  -1 -19 8305.48 1917.57   2
   3   1 -19 9216.71 2212.36   2
   3   1 -18 95251.4 7558.09   2
   3  -1 -18 95649.6 7060.08   2
   3  -1 -17 783.793 1578.47   2
   3   1 -17 1298.50 2106.06   2
   3  -1 -16 94596.7 7879.92   2
   3   1 -16 101053. 8714.43   2
   3  -1 -16 84408.8 7925.53   5
   3  -1 -15 68744.7 6822.01   2
   3  -1 -15 68384.3 6827.86   6
   3  -1 -15 71061.7 7230.90   5
   3  -1 -14 104943. 8413.05   6
   3  -1 -14 112622. 9205.85   5
   3  -1 -13 123327. 8647.48   6
   3   1 -13 130453. 9180.02   5
   3  -1 -13 116932. 8928.82   5
   3   1 -12-799.383 1026.71   5
   3  -1 -12 1960.79 2025.83   5
   3   1 -12-338.285 1390.48   6
   3  -1 -12 3551.81 1531.53   6
  -3  -1  11 323688. 9986.48   7
   3   1 -11 355241. 13568.1   6
   3  -1 -11 327152. 12916.3   6
   3   1 -11 351741. 13888.5   5
   3  -1 -11 335511. 13965.4   5
  -3  -1  10 25230.8 2749.46   7
  -3  -1   9 215342. 7785.13   7
  -3  -1   8 66670.6 4229.32   7
  -3   1   8 75436.3 3788.90   7
  -3  -1   7 56219.2 3723.20   7
  -3   1   7 51216.9 3111.55   7
  -3   1   6 6700.41 1190.23   7
  -3  -1   6 4895.96 1191.12   7
  -3  -1   5 96705.9 4855.55   7
   3   1  -5 112883. 3567.23   1
   3   1  -4 104285. 3720.50   1
   3  -1  -4 101740. 3368.71   1
   3   1  -3 2916.55 848.759   1
   3  -1  -3 2204.07 646.523   1
   3  -1  -2 10138.6 1220.26   1
   3   1  -2 8444.23 1144.76   1
   3  -1  -1 290765. 6490.96   1
   3   1  -1 296087. 7183.91   1
   3  -1   0 63516.5 3188.44   1
   3   1   0 67719.2 3600.03   1
   3  -1   1 120086. 4535.27   1
   3   1   1 118686. 4930.37   1
   3  -1   2 18865.6 1919.85   1
   3   1   2 22498.1 2274.49   1
   3  -1   3 598936. 11027.9   1
   3   1   3 587651. 11874.1   1
   3  -1   4 21771.5 2249.11   1
   3   1   4 22665.4 2390.35   1
   3  -1   5 126936. 5667.53   1
   3   1   5 131283. 6044.85   1
   3   1   6 7194.81 1610.08   1
   3  -1   6 7637.97 1645.05   1
   3   1   7 128038. 6361.64   1
   3  -1   7 126968. 6218.45   1
   3   1   8 100849. 5881.60   1
   3  -1   8 95554.4 5600.87   1
   3   1   9 19941.4 2702.08   1
   3  -1   9 22555.1 2868.74   1
  -3  -1  -9 21704.5 2936.90   5
   3  -1  10 165615. 8016.82   1
  -3  -1 -10 170732. 8662.31   5
  -3   1 -10 156619. 8974.70   4
   3   1  10 162077. 8063.97   1
  -3  -1 -11 112058. 7181.29   5
  -3   1 -11 90831.9 7147.89   4
  -3  -1 -11 100502. 7206.39   4
   3  -1  11 94431.4 6271.37   1
   3   1  11 101222. 6438.76   1
  -3  -1 -12 105858. 7149.35   5
  -3   1 -12 96764.4 7537.05   4
  -3  -1 -12 106987. 7779.75   4
  -3  -1 -13 57504.2 5364.27   5
  -3   1 -13 57123.9 5984.92   4
  -3  -1 -13 50401.2 5516.65   4
  -3  -1 -14 98973.1 6998.84   5
  -3   1 -14 85646.5 7436.64   4
  -3  -1 -14 85284.2 6997.98   4
  -3  -1 -15 149380. 8363.77   5
  -3   1 -15 148218. 9261.10   4
  -3  -1 -15 159525. 9203.53   4
  -3  -1 -16 21323.1 3132.97   5
  -3   1 -16 21351.5 3449.73   4
  -3  -1 -16 22015.1 3262.15   4
  -3  -1 -17 164442. 7646.31   5
  -3   1 -17 154029. 8114.20   4
  -3  -1 -17 149588. 7531.13   4
  -3  -1 -18 1414.35 698.355   5
   3   2 -21 3153.85 1135.00   2
   3   2 -20 581.502 1204.11   2
   3  -2 -19 11241.6 2293.22   2
   3   2 -19 10407.6 2523.89   2
   3  -2 -18 21114.2 3219.74   2
   3   2 -18 25005.1 3814.18   2
   3   2 -17 1695.14 2455.31   2
   3  -2 -17 2699.71 1688.59   2
   3  -2 -16 43407.0 5350.96   2
   3   2 -16 55298.2 6318.95   2
   3  -2 -16 45459.2 5791.59   6
   3  -2 -16 49969.5 6154.87   5
   3  -2 -15 21331.1 4104.53   5
   3  -2 -15 17406.6 3455.35   2
   3  -2 -15 17718.6 3763.21   6
   3  -2 -14 244621. 12075.5   2
   3  -2 -14 204091. 11521.9   6
   3  -2 -14 222021. 12862.9   5
   3  -2 -13 887.130 1702.52   5
   3  -2 -13 1515.21 1719.65   2
   3  -2 -13 2079.41 2486.24   6
   3  -2 -12 244026. 11517.1   2
  -3  -2  12 278224. 9891.91   7
   3  -2 -12 262655. 12095.1   6
   3  -2 -12 257429. 13060.1   5
  -3  -2  11 34526.7 3615.30   7
   3  -2 -11 37716.6 4642.10   2
   3  -2 -11 35151.4 4606.27   6
   3  -2 -11 31908.5 4670.25   5
  -3  -2  10 225463. 8868.53   7
  -3  -2   9 30424.9 3172.83   7
  -3  -2   8 279112. 9064.72   7
  -3   2   7 114382. 4253.39   7
  -3  -2   7 129025. 6003.69   7
  -3   2   6 195971. 5841.35   7
  -3  -2   6 205327. 7434.27   7
  -3  -2   5 61704.8 4087.82   7
   3   2  -5 68645.9 3272.54   1
   3   2  -4 38333.8 2571.55   1
   3  -2  -4 34067.0 2058.88   1
   3  -2  -3 99180.6 3596.18   1
   3   2  -3 95782.9 4161.91   1
   3  -2  -2 81088.4 3381.00   1
   3   2  -2 81859.6 3934.42   1
   3   2  -1 159699. 5678.90   1
   3  -2  -1 159787. 4918.94   1
   3   2   0 558572. 11003.8   1
   3  -2   0 581467. 9765.62   1
   3   2   1 38910.1 3022.86   1
   3  -2   1 38705.6 2661.47   1
   3   2   2 449304. 10472.6   1
   3  -2   2 460904. 9440.57   1
   3   2   3 33487.2 3035.44   1
   3  -2   3 29420.1 2581.93   1
   3   2   4 781613. 14765.4   1
   3  -2   4 772551. 13377.3   1
   3   2   5 2197.25 1080.16   1
   3  -2   5 1268.10 838.378   1
   3   2   6 554478. 13328.3   1
   3  -2   6 559262. 12372.6   1
   3  -2   7 38376.4 3421.03   1
   3   2   7 36676.3 3670.79   1
   3   2   8 191494. 8304.14   1
   3  -2   8 197081. 8062.52   1
   3   2   9 52292.1 4456.72   1
  -3  -2  -9 55560.1 4910.51   5
  -3   2  -9 54265.4 5155.65   4
   3  -2   9 54546.8 4464.90   1
   3   2  10 66285.0 5187.06   1
  -3  -2 -10 70423.1 5730.80   5
  -3   2 -10 55340.2 5471.68   4
   3  -2  10 66771.2 5267.62   1
  -3  -2 -11 133837. 7941.35   5
   3  -2  11 115560. 7258.58   1
  -3   2 -11 118549. 8231.98   4
   3   2  11 123690. 7145.07   1
  -3  -2 -12 44677.2 4784.39   5
  -3   2 -12 36263.8 4857.32   4
  -3  -2 -12 48257.2 5079.61   4
  -3  -2 -13 58991.2 5428.12   5
  -3   2 -13 50293.2 5765.51   4
  -3  -2 -13 51823.5 5421.38   4
  -3  -2 -14 34742.2 4230.91   5
  -3   2 -14 26563.2 4206.25   4
  -3  -2 -14 31635.6 4198.41   4
  -3  -2 -15 15988.4 2972.84   5
  -3  -2 -15 16315.2 3101.42   4
  -3   2 -15 14625.0 3330.21   4
  -3  -2 -16 35039.2 3871.95   5
  -3  -2 -16 33683.4 4035.17   4
  -3   2 -16 37853.8 4590.95   4
  -3  -2 -17 2506.10 1161.57   5
  -3   2 -17 2985.15 1581.39   4
  -3  -2 -17 3074.73 1241.38   4
  -3  -2 -18 54939.2 3941.75   5
   3   3 -21 542.327 739.479   2
   3   3 -20 199228. 8648.03   2
   3   3 -19 123.172 1447.51   2
   3   3 -18 392919. 15120.6   2
   3  -3 -17 250.854 2255.34   5
   3   3 -17 485.542 2473.89   2
   3   3 -16 287463. 14349.9   2
   3  -3 -16 274575. 13233.4   6
   3  -3 -16 299232. 14576.4   5
   3  -3 -15 4487.00 2476.96   5
   3  -3 -15 3823.66 2305.18   6
   3  -3 -14 190594. 10960.2   6
   3  -3 -14 201323. 12201.6   5
   3  -3 -13 20393.5 4153.51   5
   3  -3 -13 21783.3 4239.72   6
   3  -3 -12 118235. 8152.98   6
  -3  -3  12 131546. 7285.88   7
   3  -3 -12 113668. 8803.63   5
  -3  -3  11 44651.5 4281.53   7
   3  -3 -11 36302.1 4599.20   6
   3  -3 -11 34110.3 4661.98   5
  -3  -3  10 689.345 722.584   7
   3  -3 -10-1025.64 1111.09   6
  -3  -3   9 1805.34 917.014   7
  -3  -3   8 60885.2 4652.70   7
  -3  -3   7 10482.4 1976.90   7
  -3   3   6 254441. 6126.95   7
  -3  -3   6 251228. 8720.24   7
   3   3  -5 9809.28 1618.84   1
  -3  -3   5 9297.04 1701.62   7
   3  -3  -4 405824. 7743.78   1
  -3  -3   4 372303. 10419.3   7
   3   3  -3 19435.2 2218.92   1
   3  -3  -3 19334.6 1805.07   1
  -3  -3   3 21069.9 2528.28   7
   3   3  -2 277066. 8177.07   1
   3  -3  -2 275077. 6731.83   1
   3   3  -1 3644.37 1165.98   1
   3  -3  -1 6202.94 1114.55   1
   3  -3   0 233843. 6410.09   1
   3   3   0 237830. 7895.17   1
   3  -3   1 12015.0 1613.57   1
   3   3   1 11230.8 1916.61   1
   3   3   2 6679.58 1680.17   1
   3  -3   2 3852.74 1070.68   1
   3  -3   3 2605.06 913.293   1
   3   3   3 898.410 892.109   1
   3   3   4 58881.3 4276.08   1
   3  -3   4 55415.0 3689.96   1
   3   3   5 37227.8 3554.89   1
   3  -3   5 35212.8 3075.39   1
   3   3   6 76104.0 5104.75   1
   3  -3   6 78657.4 4759.64   1
   3   3   7 23181.5 2909.82   1
   3  -3   7 20568.0 2576.57   1
  -3  -3  -8 280223. 10940.4   5
   3   3   8 258656. 9953.03   1
  -3   3  -8 272638. 11219.6   4
   3  -3   8 275434. 9893.04   1
  -3   3  -9 5106.74 1974.96   4
   3   3   9 3128.24 1421.38   1
  -3  -3  -9 6027.77 1796.60   5
   3  -3   9 3778.86 1403.36   1
   3   3  10 202247. 9135.22   1
  -3  -3 -10 208860. 9946.00   5
   3  -3  10 198372. 9340.49   1
  -3   3 -10 193656. 10315.4   4
   3   3  11-278.715 1031.84   1
  -3   3 -11 2038.58 1338.97   4
  -3  -3 -11 787.474 852.694   5
   3  -3  11-1731.50 1216.31   1
  -3  -3 -12 173299. 9342.01   5
  -3   3 -12 149885. 9735.54   4
  -3  -3 -12 174810. 9277.72   4
  -3  -3 -13 46359.8 4916.96   5
  -3   3 -13 42373.7 5338.64   4
  -3  -3 -13 48794.8 5099.24   4
  -3  -3 -14 89297.5 6625.96   5
  -3   3 -14 80041.8 7190.70   4
  -3  -3 -14 73318.1 6097.05   4
  -3  -3 -15 1871.60 1141.69   5
  -3   3 -15-1453.52 1768.73   4
  -3  -3 -15 948.155 949.426   4
  -3  -3 -16 49095.0 4689.85   5
  -3  -3 -16 40357.5 4018.12   4
  -3   3 -16 46261.1 4918.45   4
  -3  -3 -17 11513.4 2093.21   5
  -3  -3 -18 2636.99 843.101   5
  -3  -3 -19 1901.01 768.742   5
   3   4 -21 22983.2 2408.73   2
   3   4 -20 2160.37 1083.57   2
   3   4 -19 23696.2 3501.96   2
   3   4 -18 2240.58 1111.91   2
   3  -4 -17 29842.9 4296.23   6
   3   4 -17 26322.6 4051.28   2
   3  -4 -16 55253.6 6004.79   6
   3   4 -16 60912.0 6457.49   2
   3  -4 -16 49968.5 6282.65   5
   3  -4 -15 28216.3 4812.70   5
   3  -4 -15 25010.1 4242.25   6
   3   4 -15 28369.1 4636.62   2
   3  -4 -14 243395. 12413.0   6
   3   4 -14 250887. 13286.5   2
   3  -4 -14 251836. 13408.2   5
   3  -4 -13 1921.03 2358.83   5
   3  -4 -13 259.914 779.172   6
  -3  -4  13 1683.55 1128.26   7
  -3  -4  12 366307. 12915.1   7
   3  -4 -12 364991. 14625.2   6
   3  -4 -12 337922. 14985.2   5
   3  -4 -11 14113.8 3266.92   6
   3  -4 -11 12007.2 3313.06   5
  -3  -4  11 15689.7 2716.28   7
  -3  -4  10 243341. 10465.8   7
   3   4 -10 265602. 12102.0   2
   3  -4 -10 236216. 11139.4   6
  -3  -4   9 139063. 7828.28   7
  -3  -4   8 225001. 9548.15   7
  -3  -4   7 195464. 8475.65   7
  -3  -4   6 17010.4 2402.85   7
  -3  -4   5 334461. 10382.4   7
  -3  -4   4 966.609 1144.75   7
   3  -4  -3 562264. 10391.5   1
  -3  -4   3 536845. 12781.9   7
  -3  -4   2 33228.4 3254.27   7
   3  -4  -2 35120.1 2687.24   1
   3   4  -1 215928. 8264.08   1
   3  -4  -1 227808. 6790.09   1
   3   4   0 128714. 6384.85   1
   3  -4   0 140177. 5415.90   1
   3  -4   1 253046. 7435.28   1
   3   4   1 238886. 8792.75   1
   3   4   2 225449. 8666.82   1
   3  -4   2 227004. 7242.64   1
   3  -4   3 38571.9 3182.82   1
   3   4   3 30617.5 3288.30   1
   3  -4   4 202570. 7382.64   1
   3   4   4 191375. 8160.24   1
   3   4   5 4542.95 1317.25   1
   3  -4   5 5530.81 1346.03   1
   3   4   6 312034. 10881.6   1
   3  -4   6 341122. 10365.2   1
  -3  -4  -7 117616. 7064.58   5
   3   4   7 124729. 7042.16   1
   3  -4   7 125668. 6616.16   1
  -3  -4  -8 109404. 7075.75   5
   3   4   8 103447. 6578.80   1
   3  -4   8 102141. 6261.73   1
  -3   4  -8 108555. 7185.19   4
  -3  -4  -9 109245. 7232.88   5
   3   4   9 102985. 6675.31   1
   3  -4   9 100918. 6520.68   1
  -3   4  -9 107591. 7508.00   4
  -3  -4 -10 100457. 7004.69   5
   3   4  10 93102.6 6370.25   1
   3  -4  10 91122.6 6521.06   1
  -3   4 -10 91978.8 7258.47   4
  -3  -4 -11 170227. 9318.43   5
  -3   4 -11 166913. 9985.09   4
  -3  -4 -12-11.0313 1416.26   5
  -3   4 -12-282.616 648.383   4
  -3  -4 -12 995.065 1104.72   4
  -3  -4 -13 112774. 7659.21   5
  -3   4 -13 95644.6 7864.15   4
  -3  -4 -13 116709. 7442.41   4
  -3  -4 -14 26999.5 3951.94   5
  -3   4 -14 27463.6 4062.24   4
  -3  -4 -14 24940.9 3462.46   4
  -3   4 -15 34866.3 4641.20   4
  -3  -4 -15 38762.7 4316.28   5
  -3  -4 -16 5917.66 1832.14   5
  -3   4 -16 4941.34 2182.16   4
  -3  -4 -17 21265.9 2845.29   5
  -3  -4 -18 17524.0 2261.37   5
   3   5 -20 1992.29 827.876   2
   3   5 -19 15298.7 2582.13   2
   3   5 -18 12065.4 2525.56   2
   3   5 -17 10997.5 3021.73   2
   3  -5 -17 4028.91 1741.11   6
   3  -5 -16 2025.65 2294.47   5
   3   5 -16 264.888 1039.61   2
   3  -5 -16 3589.25 2229.78   6
   3   5 -15 59492.9 6482.42   2
   3  -5 -15 66416.9 6570.14   6
   3  -5 -15 54630.7 6009.94   5
   3  -5 -14 3446.44 2226.65   5
   3  -5 -14 1556.54 1753.17   6
   3   5 -14-127.893 791.909   2
   3  -5 -13 44922.2 5412.43   6
  -3  -5  13 39326.9 4523.26   7
   3   5 -13 44640.8 5383.37   2
   3  -5 -13 33266.2 5078.33   5
   3   5 -12 69326.1 6670.69   2
   3  -5 -12 59885.1 5934.76   6
  -3  -5  12 63075.5 5869.79   7
   3  -5 -12 56202.0 6312.59   5
   3  -5 -11 243803. 11800.8   6
  -3  -5  11 259624. 11528.8   7
   3   5 -11 264105. 12496.8   2
   3   5 -10 21371.4 3462.20   2
  -3  -5  10 16104.3 3212.97   7
   3  -5 -10 16094.2 3254.58   6
  -3  -5   9 282960. 11760.2   7
   3   5  -9 287143. 12002.8   2
   3  -5  -9 273819. 11777.5   6
  -3  -5   8 3589.17 1316.92   7
  -3  -5   7 198088. 9271.34   7
  -3  -5   6 2023.40 1081.36   7
  -3  -5   5 38364.5 3892.45   7
  -3  -5   4 26425.8 3099.51   7
  -3  -5   3 3902.75 1390.42   7
  -3  -5   2 23500.8 2863.14   7
   3  -5  -1 142270. 5891.50   1
  -3  -5   1 137840. 6460.89   7
  -3  -5   0 81395.0 4870.73   7
   3  -5   0 82768.2 4573.82   1
   3   5   1 395870. 12354.2   1
   3  -5   1 470541. 11003.3   1
   3   5   2 33543.2 3727.35   1
   3  -5   2 36741.6 3192.10   1
   3   5   3 328560. 11296.3   1
   3  -5   3 379008. 10357.7   1
   3  -5   4 1907.39 1028.98   1
   3   5   4 478.084 731.712   1
   3  -5   5 355935. 10756.8   1
   3   5   5 352830. 11908.4   1
   3  -5   6 4010.55 1240.73   1
  -3  -5  -6 7006.30 1867.52   5
   3   5   6 3005.93 1404.73   1
  -3  -5  -7 69213.1 5677.88   5
   3  -5   7 64877.9 5030.25   1
  -3   5  -7 66665.6 5560.16   4
   3   5   7 64829.9 5290.02   1
  -3   5  -8 14553.7 2792.08   4
   3  -5   8 12063.5 2347.70   1
  -3  -5  -8 12177.7 2537.44   5
   3   5   8 11045.7 2333.01   1
  -3  -5  -9 20112.7 3122.32   5
   3   5   9 25498.1 3478.81   1
   3  -5   9 19602.4 3101.05   1
  -3   5  -9 21408.3 3757.22   4
  -3  -5 -10 23383.2 3674.19   5
   3   5  10 19876.9 3091.81   1
  -3   5 -10 22917.7 3671.15   4
  -3  -5 -11 42273.0 4734.21   5
  -3   5 -11 43247.6 5091.44   4
  -3  -5 -12 25445.4 3665.81   5
  -3   5 -12 26525.7 4128.82   4
  -3  -5 -12 26470.2 3620.61   4
  -3  -5 -13 45710.4 4943.51   5
  -3   5 -13 40447.8 5094.62   4
  -3   5 -14 148.236 1507.52   4
  -3  -5 -14 206.087 1433.06   5
  -3  -5 -15 154278. 8415.64   5
  -3   5 -15 136700. 8485.93   4
  -3  -5 -16 17710.2 2978.67   5
  -3  -5 -17 167146. 7426.79   5
  -3  -5 -18-1019.92 663.311   5
   3   6 -20 761.816 503.878   2
   3   6 -19 91223.5 5535.33   2
   3   6 -18 6666.64 2108.30   2
   3   6 -17 86587.3 6649.66   2
   3  -6 -17 84877.2 6453.47   6
   3  -6 -16 41850.2 5073.61   6
   3   6 -16 45621.7 5025.70   2
   3   6 -15 105617. 8037.11   2
   3  -6 -15 104964. 7846.99   6
   3  -6 -15 97567.4 7576.42   5
   3  -6 -14 104875. 8007.84   6
   3   6 -14 99049.8 7838.23   2
   3  -6 -14 90194.3 7496.44   5
   3   6 -13-500.127 1547.74   2
   3  -6 -13 2347.87 1729.31   6
  -3  -6  12 225199. 11343.3   7
   3   6 -12 212816. 11273.7   2
   3  -6 -12 228911. 11730.3   6
  -3  -6  11 48333.9 5274.21   7
   3   6 -11 47170.1 5163.89   2
   3  -6 -11 44948.0 5099.60   6
  -3  -6  10 44612.7 5039.91   7
   3   6 -10 45768.9 4911.58   2
   3  -6 -10 40031.4 5024.83   6
  -3  -6   9 216662. 10860.1   7
   3   6  -9 209143. 10247.5   2
   3  -6  -9 202542. 10448.7   6
   3   6  -8 15219.7 2634.55   2
  -3  -6   8 11800.1 2530.78   7
   3  -6  -8 13000.2 2835.44   6
  -3  -6   7 422939. 14429.6   7
   3  -6  -7 401247. 13888.9   6
  -3  -6   6 1951.99 1603.37   7
  -3  -6   5 655666. 16515.7   7
  -3  -6   4 4327.97 1735.02   7
  -3  -6   3 478712. 12995.5   7
  -3  -6   2 87197.5 5445.62   7
  -3  -6   1 513769. 12690.4   7
  -3  -6   0 19733.3 2488.35   7
  -3  -6  -1 230934. 8182.84   7
   3   6   2 91486.0 6442.84   1
  -3  -6  -2 88694.0 5048.18   7
   3   6   3 33415.1 4058.14   1
   3  -6   3 35374.0 3490.49   1
  -3  -6  -3 25599.5 2776.16   7
   3   6   4 26022.8 3428.30   1
  -3  -6  -4 22544.9 2635.48   7
   3  -6   4 24625.5 3004.48   1
   3  -6   5 4521.46 1482.83   1
  -3  -6  -5 2304.71 1194.02   5
  -3  -6  -6 41009.9 4553.66   5
  -3   6  -6 47388.9 4710.90   4
   3   6   6 42143.6 4399.20   1
  -3  -6  -7 115713. 7515.39   5
  -3   6  -7 111304. 7311.93   4
   3   6   7 115828. 7249.20   1
  -3  -6  -8 26721.2 3653.47   5
   3   6   8 30555.2 3825.45   1
  -3   6  -8 29982.0 3982.27   4
  -3  -6  -9 189612. 9861.56   5
   3   6   9 185086. 9307.04   1
  -3   6  -9 201894. 10568.2   4
  -3  -6 -10 3582.57 2293.52   5
   3   6  10 11209.8 2512.48   1
  -3   6 -10 8835.49 2403.82   4
  -3  -6 -11 245321. 11411.4   5
  -3   6 -11 244719. 12118.0   4
  -3  -6 -12 8239.03 2626.76   5
  -3   6 -12 7408.63 2486.93   4
  -3  -6 -13 196058. 10043.7   5
  -3   6 -13 175196. 10065.5   4
  -3  -6 -14 507.243 871.538   5
  -3   6 -14 1562.81 1108.64   4
  -3  -6 -15 20069.7 3133.92   5
  -3  -6 -16 34877.8 3656.21   5
  -3  -6 -17 15561.8 2265.00   5
  -3  -6 -18 189.744 378.215   5
   3   7 -19 14997.0 1983.64   2
   3   7 -18 136368. 6786.13   2
   3   7 -17 4903.66 1593.18   2
   3  -7 -17 5301.50 1834.31   6
   3   7 -16 99511.4 6857.38   2
   3  -7 -16 99267.5 7138.53   6
   3   7 -15 48786.0 5057.19   2
   3  -7 -15 67134.5 6230.63   6
   3   7 -14 59253.4 5747.69   2
   3  -7 -14 63757.5 6201.83   6
   3   7 -13 133971. 8680.49   2
   3  -7 -13 126910. 8742.22   6
   3  -7 -12 24404.0 4018.03   6
   3   7 -12 23376.3 3980.70   2
   3   7 -11 267514. 12084.1   2
  -3  -7  11 257796. 12628.3   7
   3  -7 -11 263955. 12512.5   6
   3   7 -10 18010.7 3047.73   2
  -3  -7  10 16957.8 3378.14   7
   3  -7 -10 11549.8 2715.06   6
   3   7  -9 139187. 8211.14   2
  -3  -7   9 135029. 8968.43   7
   3  -7  -9 134032. 8856.17   6
   3  -7  -8 63572.6 5750.27   6
   3   7  -8 66632.0 5500.87   2
  -3  -7   8 67924.5 6505.31   7
   3   7  -7 27445.7 3608.97   2
  -3  -7   7 23256.2 3901.70   7
   3  -7  -7 30708.0 4189.89   6
  -3  -7   6 183073. 9680.75   7
   3  -7  -6 180723. 9594.39   6
  -3  -7   5 3667.11 1837.00   7
   3  -7  -5 6651.31 2389.20   6
  -3  -7   4 125932. 7315.35   7
  -3  -7   3 5096.89 1647.11   7
  -3  -7   2 229098. 9109.82   7
  -3  -7   1 12533.0 2311.42   7
  -3  -7   0 36165.7 3458.31   7
  -3  -7  -1 57375.4 4207.88   7
  -3  -7  -2 10189.6 1798.18   7
   3   7   3 62068.5 5668.11   1
  -3  -7  -3 44594.5 3528.90   7
   3   7   4 110606. 7449.48   1
  -3  -7  -4 95643.2 6584.39   5
  -3  -7  -5 10427.6 2861.24   5
   3   7   5 9950.00 2227.55   1
  -3  -7  -6 74634.8 6130.38   5
   3   7   6 81893.5 6385.06   1
  -3  -7  -7 42537.8 4741.70   5
  -3   7  -7 48452.4 4822.98   4
   3   7   7 40794.9 4445.88   1
  -3  -7  -8 289214. 12345.8   5
  -3   7  -8 273608. 12050.5   4
   3   7   8 280787. 11709.1   1
  -3  -7  -9 8359.96 2362.19   5
  -3   7  -9 5226.54 1486.59   4
   3   7   9 7333.50 1891.22   1
  -3  -7 -10 134522. 8492.85   5
  -3   7 -10 147403. 9224.86   4
  -3  -7 -11 15600.6 3226.45   5
  -3   7 -11 22501.8 3738.27   4
  -3   7 -12 121348. 8242.15   4
  -3  -7 -12 126983. 8127.56   5
  -3  -7 -13 19075.8 3271.14   5
  -3  -7 -14 71224.0 5620.22   5
  -3  -7 -15 53655.6 4622.96   5
  -3  -7 -16 15286.2 2575.89   5
  -3  -7 -17 55827.9 3780.73   5
   3   8 -18 11666.7 1830.53   2
   3   8 -17-2029.58 1061.39   2
   3  -8 -17-94.7222 1404.96   6
   3   8 -16 97929.9 6195.22   2
   3  -8 -16 109041. 6919.24   6
   3   8 -15 718.103 669.796   2
   3  -8 -15-2012.38 1551.67   6
   3   8 -14 187114. 9366.98   2
   3  -8 -14 185692. 10179.1   6
   3   8 -13 836.683 1388.12   2
   3  -8 -13 308.999 1598.20   6
   3  -8 -12 288218. 13127.6   6
   3   8 -12 286256. 11983.1   2
   3   8 -11 2095.57 1038.06   2
   3  -8 -11 1510.16 1779.48   6
   3   8 -10 283619. 11614.3   2
  -3  -8  10 304007. 13898.0   7
   3  -8 -10 278808. 12997.5   6
   3   8  -9 27208.6 3802.61   2
  -3  -8   9 27448.8 4277.89   7
   3  -8  -9 26250.9 3979.13   6
  -3  -8   8 220312. 11736.5   7
   3   8  -8 213552. 9672.94   2
   3  -8  -8 200461. 10691.1   6
  -3  -8   7 19778.1 3447.35   7
   3  -8  -7 13406.2 3204.70   6
  -3  -8   6 72143.9 6286.39   7
   3  -8  -6 77409.9 6638.25   6
  -3  -8   5 3092.87 1377.43   7
   3  -8  -5 1434.68 1181.23   6
  -3  -8   4 13383.1 2625.91   7
   3  -8  -4 16490.2 3118.43   6
  -3  -8   3 1228.36 1252.80   7
   3  -8  -3-732.497 1359.01   6
  -3  -8   2 97540.1 6246.34   7
  -3  -8   1 1963.06 1335.38   7
  -3  -8   0 356977. 11144.4   7
  -3  -8  -1 1769.37 753.930   7
   3  -8   2 436317. 14876.7   3
   3  -8   3 3465.87 2228.79   3
  -3  -8  -3 7047.13 1854.84   5
   3   8   3 7591.16 2240.39   1
   3   8   4 842344. 21453.6   1
  -3  -8  -4 829425. 19783.8   5
  -3  -8  -5 7556.44 2239.52   5
   3   8   5 8728.83 2214.05   1
  -3  -8  -6 317437. 12738.3   5
   3   8   6 309381. 12723.4   1
   3   8   7 16065.6 3082.85   1
  -3  -8  -7 19315.8 3432.63   5
  -3  -8  -8 307821. 12801.5   5
  -3   8  -8 310374. 12542.2   4
  -3   8  -9 10711.6 2771.32   4
  -3  -8  -9 9132.38 2689.22   5
  -3  -8 -10 95477.7 7155.71   5
  -3   8 -10 103410. 7483.77   4
  -3  -8 -11 720.813 1750.78   5
  -3  -8 -12 803.897 1933.86   5
  -3  -8 -13 934.659 1238.46   5
  -3  -8 -14 9730.42 2152.91   5
  -3  -8 -15 611.167 817.174   5
  -3  -8 -16 53065.1 3845.77   5
  -3  -8 -17 313.927 549.009   5
   3   9 -17 6943.37 1283.81   2
   3  -9 -17 8847.63 1643.05   6
   3   9 -16 135967. 6244.76   2
   3  -9 -16 165899. 7872.02   6
   3   9 -15 18913.1 2736.53   2
   3  -9 -15 22733.3 3137.03   6
   3   9 -14 118175. 6749.93   2
   3  -9 -14 127611. 8041.31   6
   3  -9 -13 88673.6 7127.88   6
   3   9 -13 79784.9 5800.24   2
   3   9 -12 45002.7 4561.84   2
   3  -9 -12 46787.1 5206.76   6
   3   9 -11 69759.5 5634.93   2
   3  -9 -11 72203.1 6630.20   6
   3  -9 -10 3960.34 1875.76   6
   3  -9  -9 159357. 9845.37   6
  -3  -9   8 82995.0 7335.73   7
   3  -9  -8 78585.1 6972.12   6
  -3  -9   7 38862.6 5010.62   7
   3  -9  -7 42422.6 5081.70   6
  -3  -9   6 38064.1 4876.87   7
   3  -9  -6 27779.6 4542.66   6
  -3  -9   5 3822.01 1909.14   7
   3  -9  -5 2457.70 1788.63   6
  -3  -9   4 148612. 8771.58   7
   3  -9  -4 176176. 10145.2   6
  -3  -9   3 1926.34 1474.57   7
   3  -9  -3 342.882 1237.22   3
   3  -9  -3 2789.11 2083.90   6
  -3  -9   2 157703. 8501.51   7
   3  -9  -2 179962. 9856.54   3
  -3  -9   1 16099.5 2746.24   7
   3  -9  -1 18261.2 3584.35   3
   3  -9   0 89805.5 7108.24   3
  -3  -9   0 79967.4 5702.68   7
   3  -9   1 115999. 8148.33   3
   3  -9   2 15679.8 2899.94   3
  -3  -9  -2 18029.2 3086.37   5
   3  -9   3 22378.2 3762.59   3
   3   9   3 23574.0 3777.86   1
  -3  -9  -3 20877.1 3551.43   5
   3  -9   4 17500.5 3377.00   3
  -3  -9  -4 15561.9 3279.13   5
   3   9   4 17695.5 3189.15   1
   3   9   5 62247.5 6065.68   1
  -3  -9  -5 57683.0 5614.63   5
   3  -9   5 65298.6 6330.90   3
  -3  -9  -6 54249.1 5624.88   5
   3   9   6 49382.4 5238.73   1
  -3  -9  -7 1955.77 2102.44   5
  -3  -9  -8 179298. 9602.52   5
  -3  -9  -9 2287.78 1595.76   5
  -3  -9 -10 342262. 13001.3   5
  -3  -9 -11-209.498 1078.43   5
  -3  -9 -12 125223. 7460.52   5
  -3  -9 -13 37858.1 4014.73   5
  -3  -9 -14 67070.9 4826.27   5
  -3  -9 -15 15405.8 2178.50   5
  -3  -9 -16 11918.2 1622.94   5
   3 -10 -16 9816.63 1663.89   6
   3 -10 -15 19257.4 2777.73   6
   3 -10 -14 25997.4 3703.21   6
   3 -10 -13 5869.42 1671.42   6
   3 -10 -12 56100.8 5480.70   6
   3 -10 -11 6561.32 2408.19   6
   3 -10 -10 79553.1 6978.85   6
   3 -10  -9 89837.2 7528.56   6
   3 -10  -8 119544. 8731.73   6
   3 -10  -7 329630. 14249.0   6
   3 -10  -6 67275.3 6470.12   6
  -3 -10   6 58018.7 6174.06   7
  -3 -10   5 489281. 16425.6   7
   3 -10  -5 509090. 17782.8   6
  -3 -10   4 9293.04 2690.80   7
   3 -10  -4 9630.00 2711.59   6
  -3 -10   3 519847. 15973.7   7
   3 -10  -3 562792. 18876.4   6
   3 -10  -3 572485. 18190.5   3
  -3 -10   2 7329.24 1927.28   7
   3 -10  -2 427.776 1746.55   3
   3 -10  -1 331281. 14207.4   3
   3 -10   0 60813.1 6083.94   3
  -3 -10  -1 312950. 11860.0   5
   3 -10   1 324149. 14002.8   3
  -3 -10  -2 46325.9 4863.64   5
   3 -10   2 42899.3 5338.55   3
   3 -10   3 20216.4 3905.28   3
   3  10   3 19400.4 3639.33   1
  -3 -10  -3 20476.4 3470.08   5
  -3 -10  -4 167194. 9196.53   5
   3 -10   4 180346. 10566.2   3
   3 -10   5 20244.1 3538.57   3
  -3 -10  -5 18419.4 3323.92   5
  -3 -10  -6 48005.7 5006.67   5
   3 -10   6 49222.9 5412.56   3
  -3 -10  -7 57751.1 5362.81   5
   3 -10   7 65312.4 6209.37   3
   3 -10   8 7082.73 2359.91   3
  -3 -10  -8 4985.47 2185.75   5
  -3 -10  -9 100283. 6946.24   5
  -3 -10 -10 5328.88 1769.70   5
  -3 -10 -11 115893. 6862.23   5
   3 -10  12-1710.58 1110.44   3
  -3 -10 -12 232.889 800.354   5
  -3 -10 -13 96114.4 5512.42   5
   3 -10  13 86360.7 5633.18   3
   3 -10  14-493.787 782.057   3
  -3 -10 -14 1051.32 619.206   5
  -3 -10 -15 37125.8 2707.09   5
   3 -10  15 34061.4 2808.75   3
   3 -11 -15 46198.6 3737.62   6
   3 -11 -14 996.276 1012.28   6
   3 -11 -13 147723. 7777.01   6
   3 -11 -12 697.178 585.804   6
   3 -11 -11 268854. 11757.4   6
   3 -11 -10 11226.6 2781.07   6
   3 -11  -9 144123. 9190.86   6
   3 -11  -8 3983.36 1860.13   6
   3 -11  -7 146262. 9450.09   6
   3 -11  -6 20997.2 3778.56   6
   3 -11  -5 622.021 1717.23   6
   3 -11  -4 4635.59 2319.26   6
   3 -11  -3 4724.74 2651.05   6
   3 -11  -2 496.554 1722.06   3
   3 -11  -2 3016.88 1920.46   6
   3 -11  -1 54753.4 6052.16   3
   3 -11   0 2306.31 1294.01   3
   3 -11   1 186795. 10938.8   3
   3 -11   2 15326.1 3505.75   3
  -3 -11  -3 93972.2 6433.01   5
   3 -11   3 106066. 7985.76   3
   3 -11   4-373.047 931.492   3
  -3 -11  -4-335.721 1396.22   5
  -3 -11  -5 170164. 8833.15   5
   3 -11   5 176542. 10146.0   3
   3 -11   6 15051.8 3493.98   3
  -3 -11  -6 12509.5 2685.91   5
  -3 -11  -7 153937. 8205.20   5
   3 -11   7 152145. 9234.77   3
   3 -11   8 9202.03 2447.88   3
  -3 -11  -8 8344.20 2000.71   5
  -3 -11  -9 23930.2 3099.13   5
   3 -11   9 24418.8 3697.04   3
  -3 -11 -10 23314.9 2964.72   5
   3 -11  10 22830.4 3245.98   3
   3 -11  11-387.771 832.181   3
  -3 -11 -11 34.3811 812.368   5
  -3 -11 -12 19209.5 2462.37   5
   3 -11  12 19027.2 2691.43   3
  -3 -11 -13 53625.2 3533.58   5
   3 -11  13 59240.5 4114.43   3
   3 -12 -14 97176.2 4971.94   6
   3 -12 -13 2056.48 1099.90   6
   3 -12 -12 91156.4 5945.42   6
   3 -12 -11 18103.7 2859.11   6
   3 -12 -10 183580. 9386.27   6
   3 -12  -9 70059.4 6238.75   6
   3 -12  -8 69996.7 6237.49   6
   3 -12  -7 142213. 9080.41   6
   3 -12  -6 15209.3 2921.37   6
   3 -12  -5 269654. 12938.2   6
   3 -12  -4 8769.17 2003.88   6
   3 -12  -3 273400. 13374.1   6
   3 -12  -2 136472. 9498.69   6
   3 -12  -1 158788. 9817.16   3
   3 -12  -1 153392. 10161.0   6
   3 -12   0 127902. 9103.16   3
   3 -12   1 155285. 9828.58   3
   3 -12   2 347880. 14529.5   3
   3 -12   3 32859.7 4390.11   3
   3 -12   4 226931. 11393.0   3
   3 -12   5 2951.02 2165.71   3
   3 -12   6 90361.5 6969.59   3
   3 -12   7 22871.9 3606.51   3
  -3 -12  -8 27792.5 2983.92   5
   3 -12   8 25089.9 3599.33   3
  -3 -12  -9 64923.4 4350.78   5
   3 -12   9 60388.2 5058.80   3
   3 -12  10 2893.55 1593.04   3
  -3 -12 -10 2319.00 1130.31   5
  -3 -12 -11 35667.3 2751.96   5
   3 -12  11 86909.7 5258.95   3
   3 -12  12 2898.49 1236.77   3
   3 -13 -13 1513.93 779.729   6
   3 -13 -12 31778.5 3012.74   6
   3 -13 -11 14495.2 2174.30   6
   3 -13 -10-755.118 761.280   6
   3 -13  -9 22222.3 3184.56   6
   3 -13  -8 53723.0 5113.62   6
   3 -13  -7 50649.2 5023.58   6
   3 -13  -6 134017. 8521.33   6
   3 -13  -5 14785.6 3234.90   6
   3 -13  -4 161004. 9518.83   6
   3 -13  -3 1486.04 1587.57   6
   3 -13  -2 198762. 10924.5   6
   3 -13  -1 2131.93 1896.21   6
   3 -13   0 62176.8 6023.81   3
   3 -13   0 53412.0 5922.15   6
   3 -13   1 16696.9 3570.52   3
   3 -13   2 81.5261 1266.56   3
   3 -13   3 5219.71 2117.21   3
   3 -13   4 21212.4 3655.22   3
   3 -13   5 40434.8 4501.77   3
   3 -13   6 123347. 7484.82   3
   3 -13   7 430.050 1354.60   3
   3 -13   8 167446. 7911.08   3
   3 -13   9-2102.61 1345.83   3
   3 -13  10 145937. 6265.01   3
   3 -13  11-1112.77 708.749   3
   3 -14 -11 8485.84 1345.37   6
   3 -14 -10 196620. 7364.33   6
   3 -14  -9 19619.1 2566.47   6
   3 -14  -8 101425. 6129.21   6
   3 -14  -7 39311.1 4018.89   6
   3 -14  -6 83868.9 6077.56   6
   3 -14  -5 57868.2 5197.92   6
   3 -14  -4 2048.11 1380.92   6
   3 -14  -3 28068.8 3990.33   6
   3 -14  -2 76710.6 6222.17   6
   3 -14  -1 29418.6 4030.18   6
   3 -14   0 146014. 8659.98   6
   3 -14   1 4450.68 1881.69   6
   3 -14   2 292845. 11360.4   3
   3 -14   2 288365. 11813.5   6
   3 -14   3 1230.55 1251.02   3
   3 -14   3 1344.42 1543.91   6
   3 -14   4 389770. 12560.1   3
   3 -14   5 10656.0 2018.26   3
   3 -14   6 255234. 9315.30   3
   3 -14   7 10988.7 2028.73   3
   3 -14   8 145755. 6145.48   3
   3 -14   9 24536.7 2459.08   3
   3 -14   9 22862.9 2245.95   6
   3 -15  -8 6664.67 1232.92   6
   3 -15  -7 42902.7 3484.15   6
   3 -15  -6 22882.6 2699.44   6
   3 -15  -5 4634.88 1291.17   6
   3 -15  -4 52281.6 4192.13   6
   3 -15  -3 5276.06 1413.47   6
   3 -15  -2 54525.3 4495.53   6
   3 -15  -1 45527.2 4151.29   6
   3 -15   0 30178.1 3272.55   6
   3 -15   1 93938.5 5988.62   6
   3 -15   2 3207.52 1612.45   6
   3 -15   3 86267.3 5380.99   6
   3 -15   4 4827.83 1514.37   6
   3 -15   5 52940.1 3873.63   6
   3 -15   6 22333.9 2368.63   6
   3 -15   7 27189.3 2355.73   6
   3 -16  -4 1268.81 568.733   6
   3 -16  -3 291593. 8205.79   6
   3 -16  -2 2069.72 792.581   6
   3 -16  -1 191824. 6841.49   6
   3 -16   0 1005.54 692.479   6
   3 -16   1 74783.0 4158.59   6
   3 -16   2 746.343 511.119   6
   3 -16   3 32170.7 2527.55   6
   4   0 -20 42675.6 3451.73   2
   4   0 -19-1855.73 873.813   2
   4   0 -18 721.141 997.702   2
   4   0 -17 742.646 1226.27   2
   4   0 -16 225.650 1537.17   2
   4   0 -15-210.436 1438.20   2
   4   0 -14 39448.5 5366.21   2
   4   0 -13 182.049 1790.01   2
   4   0 -13 1122.25 1579.23   6
   4   0 -12 144909. 9956.16   2
   4   0 -12 157222. 9628.89   6
   4   0 -11-4123.22 2301.36   2
   4   0 -11-1951.20 1899.83   6
   4   0 -10 48134.8 5526.63   2
   4   0 -10 56453.0 5432.11   6
   4   0  -9-383.577 1133.77   2
  -4   0   9 1141.94 767.707   7
   4   0  -9-593.610 1729.05   6
  -4   0   8 264346. 8824.84   7
  -4   0   7-706.844 564.178   7
  -4   0   6 263613. 9034.75   7
   4   0  -4 228.321 507.062   1
   4   0  -3-152.983 514.212   1
   4   0  -2 6759.26 1347.34   1
   4   0  -1 198.006 509.374   1
   4   0   0 498551. 11127.7   1
   4   0   1-305.168 762.760   1
   4   0   2 306532. 9312.05   1
   4   0   3 908.020 977.949   1
   4   0   4 450690. 12156.9   1
   4   0   5 60.2612 189.549   1
   4   0   6 593745. 15113.5   1
   4   0   6 572278. 18708.6   2
   4   0   7 4180.20 2421.34   2
   4   0   7-1170.46 1094.45   1
  -4   0  -8 23586.2 3321.57   5
   4   0   8 20583.8 3183.11   1
  -4   0  -9 364.039 549.960   5
   4   0   9 100.681 698.620   1
  -4   0 -10 40527.5 4301.44   5
   4   0  10 35696.2 4190.94   1
  -4   0 -11-1568.57 882.168   5
  -4   0 -11-1043.91 1851.07   4
  -4   0 -12 5154.67 1800.05   5
  -4   0 -12 2244.85 1346.93   4
  -4   0 -13 302.628 1699.15   4
  -4   0 -14 13799.6 3145.90   4
  -4   0 -15 1120.12 1129.26   4
  -4   0 -16 65985.6 5157.19   4
  -4   0 -17 777.402 1054.01   4
   4   1 -20 88597.1 5199.59   2
   4  -1 -19 3904.04 1538.63   2
   4   1 -19 3350.93 1591.68   2
   4  -1 -18 198215. 9348.59   2
   4   1 -18 211501. 10500.4   2
   4  -1 -17 2649.57 2040.93   2
   4   1 -17 5147.90 1599.99   2
   4  -1 -16 144619. 9400.91   2
   4   1 -16 161386. 10798.2   2
   4  -1 -15 43775.5 5469.77   2
   4   1 -15 49323.0 6427.20   2
   4  -1 -14 140381. 9696.32   2
   4   1 -14 145344. 10760.1   2
   4  -1 -14 137436. 9484.06   6
   4  -1 -13 76623.7 7388.36   2
   4   1 -13 63479.0 7244.58   2
   4  -1 -13 69302.9 6614.97   6
   4  -1 -12 42625.4 5544.90   2
   4   1 -12 39042.2 5441.88   2
   4  -1 -12 45881.5 5441.36   6
   4  -1 -11 180472. 10399.9   2
   4   1 -11 162023. 10531.0   2
   4   1 -11 219186. 10894.7   6
   4  -1 -11 196694. 10513.0   6
   4  -1 -10 1248.36 1569.77   2
   4   1 -10 1732.97 2008.34   2
  -4  -1  10 576.641 1033.21   7
   4   1 -10 4508.50 2086.06   6
   4  -1 -10 3106.05 2207.72   6
  -4  -1   9 142892. 7039.06   7
   4  -1  -9 135498. 8503.46   2
   4   1  -9 128478. 8667.18   2
  -4  -1   8 59165.5 4448.12   7
  -4   1   8 63002.9 4085.90   7
   4   1  -8 55947.4 5686.74   2
  -4   1   7 67856.3 4292.29   7
  -4  -1   7 66803.6 4709.52   7
  -4   1   6 248878. 8383.31   7
  -4  -1   6 247113. 9053.46   7
  -4  -1   5 80334.7 5293.20   7
   4   1  -4 288197. 7587.15   1
   4  -1  -4 289002. 7248.73   1
   4   1  -3 60187.8 3647.51   1
   4  -1  -3 63116.1 3599.94   1
   4   1  -2 364239. 9275.20   1
   4  -1  -2 372944. 8983.11   1
   4   1  -1 8830.21 1534.42   1
   4  -1  -1 8176.33 1471.66   1
   4   1   0 328281. 9349.15   1
   4  -1   0 328908. 8926.09   1
   4  -1   1 7421.50 1559.19   1
   4   1   1-128.099 821.513   1
   4   1   2 197423. 7755.53   1
   4  -1   2 192422. 7332.74   1
   4   1   3 64500.9 4616.02   1
   4  -1   3 68697.1 4544.12   1
   4   1   4 27411.0 3243.94   1
   4  -1   4 31857.3 3226.88   1
   4   1   5 59213.1 4660.29   1
   4  -1   5 63034.1 4759.37   1
   4   1   6 226.410 1220.35   1
   4  -1   6-288.877 1765.52   2
   4   1   6 1720.49 1045.01   2
   4  -1   6 541.859 534.423   1
   4  -1   7 108617. 8631.24   2
   4   1   7 98960.3 6494.08   1
   4   1   7 92703.0 7586.47   2
  -4  -1  -7 91657.0 6272.35   5
   4  -1   7 106446. 6519.41   1
   4   1   8 12297.7 2506.91   1
  -4  -1  -8 13622.8 2602.03   5
   4   1   8 15366.2 3306.59   2
   4  -1   8 11577.0 2217.60   1
  -4  -1  -9 80770.8 6098.51   5
   4  -1   9 70032.9 5727.70   1
   4   1   9 74004.0 5984.94   1
  -4  -1 -10 98993.9 6855.04   5
  -4   1 -10 89283.2 7155.97   4
   4  -1  10 80636.7 6252.39   1
   4   1  10 79392.9 6327.33   1
  -4  -1 -11 14874.1 2661.23   5
  -4   1 -11 9348.60 2657.01   4
  -4  -1 -11 14600.2 2870.53   4
  -4  -1 -12 42829.0 4589.42   5
  -4   1 -12 31717.8 4520.12   4
  -4  -1 -12 41444.5 5085.14   4
  -4   1 -13 4648.77 2309.67   4
  -4  -1 -13 5528.55 1682.44   5
  -4  -1 -13 5225.29 2044.24   4
  -4  -1 -14 27481.6 3395.66   5
  -4   1 -14 32967.6 4249.09   4
  -4  -1 -14 27880.3 3999.66   4
  -4  -1 -15 13894.4 2216.15   5
  -4   1 -15 11762.4 2658.10   4
  -4  -1 -15 14572.6 2995.99   4
  -4   1 -16 7017.81 2017.27   4
  -4  -1 -16 4170.37 1490.52   4
  -4   1 -17 38432.4 3532.56   4
  -4  -1 -17 40920.8 3381.92   4
   4   2 -20 21005.9 2806.39   2
   4   2 -19 69648.2 5460.46   2
   4   2 -18 5208.81 1676.65   2
   4  -2 -17 143571. 8176.66   2
   4   2 -17 174323. 10583.3   2
   4  -2 -16 1711.06 1307.59   2
   4   2 -16 1660.42 2605.53   2
   4  -2 -15 191073. 10556.4   2
   4   2 -15 185713. 12003.0   2
   4  -2 -15 176658. 10705.2   6
   4  -2 -14 3420.88 2296.34   2
   4   2 -14 2099.16 2366.11   2
   4  -2 -14 1414.60 2224.79   6
   4  -2 -13 72357.9 6819.30   6
   4   2 -13 69957.5 7644.81   2
   4  -2 -12 43543.8 5350.90   2
   4   2 -12 39108.3 5390.98   2
   4  -2 -12 39331.3 5025.86   6
   4  -2 -11 13037.3 3379.33   2
   4   2 -11 13715.7 3220.28   2
  -4  -2  11 16943.4 2840.77   7
   4  -2 -11 9704.34 2649.88   6
   4  -2 -10 6538.37 2675.26   2
  -4  -2  10 10559.6 2053.18   7
   4   2 -10 8376.31 2404.79   2
   4  -2 -10 12323.1 3020.06   6
   4  -2  -9 2266.70 1920.81   2
   4   2  -9 2701.64 1981.33   2
  -4  -2   9 587.117 846.598   7
   4  -2  -9-52.2177 969.393   6
   4   2  -8 19240.1 3632.69   2
  -4  -2   8 22337.6 2970.74   7
  -4  -2   7 78579.7 5398.66   7
  -4   2   6 2042.49 917.398   7
  -4  -2   6 603.963 635.159   7
  -4  -2   5 159727. 7657.45   7
   4   2  -4 14588.0 1918.02   1
   4   2  -3 421295. 10284.4   1
   4  -2  -3 444057. 9497.89   1
   4   2  -2 30433.7 2870.98   1
   4  -2  -2 22348.4 2330.45   1
   4   2  -1 108917. 5566.04   1
   4  -2  -1 112547. 5090.24   1
   4   2   0 127057. 6151.89   1
   4  -2   0 137828. 5775.00   1
   4   2   1 76694.7 4976.00   1
   4  -2   1 72593.9 4347.32   1
   4  -2   2 7759.47 1630.62   1
   4   2   2 6060.59 1619.13   1
   4   2   3 32656.6 3497.52   1
   4  -2   3 33159.9 3207.58   1
   4   2   4 45871.7 4170.47   1
   4  -2   4 43787.7 3755.30   1
   4   2   5 19835.5 2834.46   1
   4   2   5 13679.6 2611.27   2
   4  -2   5 15842.3 2496.23   1
   4  -2   6 119029. 8918.12   2
   4   2   6 115798. 8169.01   2
  -4  -2  -6 121504. 7142.90   5
   4   2   6 120518. 7158.30   1
   4  -2   6 120371. 6741.96   1
   4  -2   7 157055. 10640.4   2
   4   2   7 138483. 9115.18   2
   4   2   7 127354. 7557.60   1
  -4  -2  -7 145017. 7960.01   5
   4  -2   7 140061. 7591.41   1
   4   2   8 4131.07 1522.09   1
  -4  -2  -8 5294.06 1951.99   5
   4   2   8 6660.32 2204.49   2
   4  -2   8 4463.02 1711.32   1
   4   2   9 149042. 8612.05   1
  -4   2  -9 161094. 9464.27   4
   4  -2   9 165438. 8868.92   1
  -4  -2 -10 59127.1 5319.64   5
  -4   2 -10 55043.7 5774.80   4
   4  -2  10 52231.8 5200.12   1
   4   2  10 48348.9 4984.05   1
  -4  -2 -11 152081. 8563.77   5
  -4   2 -11 136981. 9170.30   4
  -4  -2 -11 157591. 9265.77   4
  -4  -2 -12 9456.61 2223.59   5
  -4   2 -12 11290.2 2746.17   4
  -4  -2 -12 4934.12 2067.65   4
  -4  -2 -13 280195. 11102.3   5
  -4   2 -13 260709. 12570.7   4
  -4  -2 -13 264006. 11722.9   4
  -4  -2 -14 15472.8 2521.26   5
  -4   2 -14 11502.9 3013.65   4
  -4  -2 -14 10913.3 2496.89   4
  -4  -2 -15 139558. 7084.78   5
  -4   2 -15 132979. 8088.62   4
  -4  -2 -15 131100. 7338.68   4
  -4  -2 -16 20724.7 2484.63   5
  -4   2 -16 20019.2 3126.53   4
  -4  -2 -16 19283.0 2657.18   4
  -4  -2 -17 57489.6 3384.85   5
  -4   2 -17 69166.9 4595.27   4
  -4  -2 -17 70929.2 3940.68   4
   4   3 -20 9197.76 1742.23   2
   4   3 -19 12394.0 2544.75   2
   4   3 -18 3515.68 1773.93   2
   4   3 -17 17736.0 3827.41   2
   4   3 -16 18906.6 4354.49   2
   4  -3 -16 17148.4 3932.58   6
   4   3 -15 208161. 12610.9   2
   4  -3 -15 193103. 11105.2   6
   4   3 -14 21899.3 4366.01   2
   4  -3 -14 19495.2 3837.51   6
   4   3 -13 254908. 14044.1   2
   4  -3 -13 238108. 12200.2   6
   4   3 -12-78.5237 1629.55   2
  -4  -3  12 229.409 885.989   7
   4  -3 -12-3002.04 2006.77   6
  -4  -3  11 481105. 15098.5   7
   4   3 -11 462007. 17850.8   2
   4  -3 -11 461042. 16385.7   6
   4   3 -10 8297.06 2793.55   2
  -4  -3  10 9602.83 2205.49   7
   4  -3 -10 7946.31 2277.37   6
   4   3  -9 589866. 18532.2   2
  -4  -3   9 634699. 16795.3   7
   4  -3  -9 603211. 17557.8   6
   4   3  -8 33174.7 4149.62   2
  -4  -3   8 32947.1 3807.40   7
   4  -3  -8 35656.2 4644.65   6
   4   3  -7 387634. 13732.8   2
  -4  -3   7 398371. 12639.0   7
  -4  -3   6 13552.1 2533.93   7
  -4  -3   5 383563. 12206.9   7
  -4  -3   4 38743.0 3974.51   7
   4   3  -4 44096.4 3470.80   1
   4   3  -3 23121.9 2553.67   1
   4  -3  -3 24451.1 2391.60   1
   4   3  -2 6466.41 1477.71   1
   4  -3  -2 4463.21 1060.66   1
   4   3  -1 3208.74 1517.83   1
   4  -3  -1 2954.27 1013.86   1
   4   3   0 60814.0 4546.32   1
   4  -3   0 61182.3 3982.36   1
   4   3   1 85580.8 5591.76   1
   4  -3   1 85957.4 4833.48   1
   4   3   2 1149.18 921.736   1
   4  -3   2 678.786 811.835   1
   4   3   3 262639. 10126.3   1
   4  -3   3 270779. 9123.87   1
   4   3   4 20375.3 3032.45   1
   4  -3   4 23850.3 2799.54   1
   4  -3   5 151393. 10056.7   2
   4   3   5 155435. 8976.31   2
  -4  -3  -5 159229. 8159.04   5
   4   3   5 167288. 8434.41   1
   4  -3   5 163555. 7607.92   1
  -4  -3  -6 1806.01 1585.73   5
   4  -3   6 2594.58 1951.36   2
   4  -3   6 2010.44 1424.97   1
   4   3   6 3161.23 1270.66   1
   4   3   6 6323.52 2060.00   2
   4   3   7 162766. 9853.59   2
  -4  -3  -7 148639. 8311.49   5
   4   3   7 137403. 7946.61   1
  -4   3  -7 163522. 9065.15   4
   4  -3   7 148684. 7888.30   1
   4   3   8-2677.41 1271.02   1
  -4  -3  -8 1071.58 988.446   5
   4  -3   8-514.343 1300.84   1
   4   3   8-13.1951 1039.91   2
  -4   3  -8 2226.57 1345.56   4
   4   3   9 120042. 7692.33   1
  -4  -3  -9 132490. 8125.43   5
  -4   3  -9 124422. 8429.20   4
   4  -3   9 124253. 7934.34   1
  -4  -3 -10 2709.80 1407.13   5
  -4   3 -10 3756.37 1951.92   4
  -4  -3 -11 10727.2 2255.74   5
  -4   3 -11 7081.58 2840.57   4
  -4  -3 -12 10.1587 1259.63   5
  -4   3 -12-590.410 1407.27   4
  -4  -3 -12 21.5161 459.353   4
  -4  -3 -13-584.055 704.754   5
  -4   3 -13 1007.25 1250.85   4
  -4  -3 -13 2498.04 1437.21   4
  -4  -3 -14 7453.69 1881.80   5
  -4   3 -14 5245.39 1766.16   4
  -4  -3 -14 6850.60 1953.58   4
  -4  -3 -15 3389.98 1515.87   5
  -4   3 -15 1825.78 1541.89   4
  -4  -3 -15 2796.40 1404.60   4
  -4  -3 -16 9704.80 1798.94   5
  -4   3 -16 8611.77 2287.59   4
  -4  -3 -16 8163.40 1638.47   4
  -4  -3 -17 31573.9 2578.42   5
   4   4 -20 21022.9 2447.22   2
   4   4 -19 52625.3 4580.88   2
   4   4 -18 5515.83 1890.79   2
   4   4 -17 61077.5 6011.79   2
   4   4 -16 6588.26 2253.34   2
   4  -4 -16 4410.26 2311.76   6
   4   4 -15 140405. 10112.4   2
   4  -4 -15 113669. 8523.04   6
   4   4 -14 10805.4 3168.91   2
   4  -4 -14 8615.43 2728.36   6
   4   4 -13 63984.3 7038.18   2
   4  -4 -13 53254.8 6080.31   6
   4   4 -12 33426.5 5116.20   2
  -4  -4  12 29916.2 4196.41   7
   4  -4 -12 30096.5 4643.46   6
   4   4 -11 10727.8 2983.02   2
  -4  -4  11 11934.8 2604.77   7
   4  -4 -11 7135.53 2525.94   6
   4   4 -10 63113.3 6444.99   2
  -4  -4  10 61141.0 5710.67   7
   4  -4 -10 69460.0 6531.37   6
   4   4  -9 27130.9 4159.64   2
  -4  -4   9 27054.4 3750.44   7
   4  -4  -9 26333.6 3890.88   6
  -4  -4   8 51840.8 4973.68   7
   4   4  -8 45735.3 5000.53   2
   4  -4  -8 43734.8 4981.83   6
   4   4  -7 61472.9 5574.20   2
  -4  -4   7 62853.3 5315.12   7
   4  -4  -7 61524.9 5815.75   6
   4   4  -6 88323.6 6467.79   2
  -4  -4   6 83557.3 5996.23   7
  -4  -4   5 73072.9 5568.65   7
  -4  -4   4 19753.2 2914.55   7
   4   4  -4 22563.4 2778.70   1
  -4  -4   3 148562. 7767.95   7
   4  -4  -3 163595. 6574.09   1
   4   4  -3 148902. 7286.01   1
  -4  -4   2 23011.4 3127.63   7
   4  -4  -2 20706.7 2477.45   1
   4   4  -2 19846.9 2821.68   1
   4  -4  -1 206666. 7643.51   1
   4   4  -1 203721. 8776.45   1
   4  -4   0 35175.0 3210.90   1
   4   4   0 29530.6 3436.64   1
   4  -4   1 96686.8 5406.30   1
   4   4   1 91824.0 6109.12   1
   4  -4   2 207898. 8119.25   1
   4   4   2 211853. 9359.68   1
   4   4   3 31035.3 3680.94   1
   4  -4   3 36520.2 3505.98   1
   4   4   4 201112. 9746.58   2
   4   4   4 196537. 9370.17   1
   4  -4   4 219380. 8892.97   1
  -4  -4  -5-208.869 513.081   5
   4  -4   5 1297.46 1416.25   1
   4  -4   5-1060.19 1541.38   2
   4   4   5 77.0253 394.051   2
   4   4   5 676.938 701.529   1
   4   4   6 228207. 11209.7   2
  -4  -4  -6 240911. 10609.9   5
   4   4   6 207747. 9899.64   1
  -4   4  -6 250704. 10951.4   4
   4  -4   6 222877. 9646.66   1
   4   4   7 11971.4 2625.45   2
  -4  -4  -7 10787.6 2301.50   5
   4  -4   7 14226.0 2561.47   1
   4   4   7 9401.26 2237.46   1
  -4   4  -7 12467.8 2785.62   4
  -4  -4  -8 128465. 8096.42   5
   4   4   8 110833. 7431.32   1
   4  -4   8 114208. 7465.94   1
  -4   4  -8 122929. 8246.77   4
  -4  -4  -9 157131. 8953.59   5
   4   4   9 137698. 8382.08   1
   4  -4   9 131837. 8405.16   1
  -4   4  -9 152005. 9387.14   4
  -4  -4 -10 2598.05 1457.44   5
  -4   4 -10 1535.76 1539.26   4
  -4  -4 -11 92782.7 6850.57   5
  -4   4 -11 82257.1 7188.84   4
  -4  -4 -12 640.185 739.688   5
  -4   4 -12 1810.09 1691.07   4
  -4  -4 -12 2539.48 1176.65   4
  -4  -4 -13 213946. 9698.18   5
  -4  -4 -13 207235. 9553.96   4
  -4  -4 -14 30688.3 3586.43   5
  -4   4 -14 27576.5 4151.45   4
  -4  -4 -14 29241.9 3593.97   4
  -4  -4 -15 36655.6 3723.42   5
  -4   4 -15 34392.9 4001.96   4
  -4  -4 -15 31974.6 3333.98   4
  -4  -4 -16 80373.5 4794.35   5
  -4  -4 -17 15546.4 1820.06   5
   4   5 -20 98578.7 4656.74   2
   4   5 -19 5349.20 1517.97   2
   4   5 -18 205019. 9268.66   2
   4   5 -17-360.023 1243.08   2
   4  -5 -17 648.354 1710.83   6
   4   5 -16 233199. 11767.4   2
   4  -5 -16 216221. 11021.0   6
   4   5 -15 1985.19 2012.83   2
   4  -5 -15 37.5304 2009.43   6
   4  -5 -14 107866. 8262.93   6
   4   5 -14 125831. 9304.90   2
   4   5 -13 339.991 1834.95   2
   4  -5 -13 2884.08 1892.04   6
   4   5 -12 121610. 9196.16   2
   4  -5 -12 104024. 8140.68   6
   4   5 -11 26903.7 4167.52   2
  -4  -5  11 25031.5 3941.97   7
   4  -5 -11 20345.8 3980.54   6
   4   5 -10 33354.9 4840.48   2
  -4  -5  10 32940.7 4544.41   7
   4  -5 -10 27497.8 4464.21   6
   4   5  -9 39862.0 5079.15   2
  -4  -5   9 41879.7 5019.10   7
   4  -5  -9 43204.3 5339.08   6
   4   5  -8 7465.34 2167.58   2
  -4  -5   8 5239.29 1856.38   7
   4  -5  -8 6105.74 2396.09   6
   4   5  -7 17955.2 3199.08   2
  -4  -5   7 24390.5 3592.31   7
   4  -5  -7 14971.2 3065.36   6
   4   5  -6 195345. 9561.10   2
  -4  -5   6 208424. 9913.19   7
   4  -5  -6 205154. 9997.24   6
   4   5  -5 91298.9 6326.97   2
  -4  -5   5 83477.3 6113.82   7
   4  -5  -5 84556.3 6566.42   6
   4   5  -5 95917.6 6137.21   1
  -4  -5   4 393658. 12993.9   7
   4   5  -4 383192. 12666.5   1
   4   5  -3 1047.68 975.043   1
  -4  -5   3 1207.11 1424.24   7
  -4  -5   2 570511. 15203.5   7
   4   5  -2 510552. 14990.4   1
  -4  -5   1 39974.2 4062.24   7
   4  -5  -1 42043.6 3761.12   1
   4   5  -1 38627.5 4217.57   1
   4  -5   0 395063. 11449.2   1
  -4  -5   0 422893. 12736.8   7
   4  -5   1 9964.11 1994.92   1
   4   5   1 8565.90 2033.63   1
   4  -5   2 332931. 10869.2   1
   4   5   2 284619. 11564.1   1
   4  -5   3 19107.0 2803.80   1
   4   5   3 15625.4 3032.91   1
   4   5   3 18731.9 3335.59   2
   4  -5   4 4325.50 1402.01   1
   4   5   4 6366.98 1815.08   1
   4   5   4 3511.63 1642.16   2
   4   5   5 5355.55 1654.75   1
  -4   5  -5 4810.18 1501.74   4
   4  -5   5 3619.66 1406.59   1
  -4  -5  -5 6205.83 1896.47   5
   4   5   5 7794.08 2038.48   2
   4  -5   6 3756.49 1448.62   1
  -4  -5  -6 6780.79 2131.94   5
   4   5   6 3603.73 1560.69   2
  -4   5  -6 6616.81 1871.40   4
   4   5   6 4923.03 2010.74   1
  -4  -5  -7 20179.4 3289.03   5
   4  -5   7 19077.6 3118.00   1
   4   5   7 22551.4 3575.76   2
  -4   5  -7 18280.3 3183.93   4
   4   5   7 16484.3 3074.44   1
  -4  -5  -8 91089.4 6963.22   5
   4   5   8 86356.4 6778.27   1
   4  -5   8 80003.1 6540.98   1
  -4   5  -8 83159.1 6945.62   4
  -4  -5  -9 22818.5 3605.15   5
  -4   5  -9 22052.2 3641.97   4
  -4  -5 -10 87631.4 6760.70   5
  -4   5 -10 77937.5 6862.59   4
  -4  -5 -11 3511.45 1759.73   5
  -4   5 -11 4152.52 1746.52   4
  -4  -5 -12 79228.1 6133.25   5
  -4   5 -12 75145.8 6717.74   4
  -4  -5 -12 64002.7 5473.94   4
  -4  -5 -13 6034.39 1805.75   5
  -4   5 -13 7525.84 2054.39   4
  -4  -5 -13 4986.72 1726.92   4
  -4  -5 -14 49941.5 4469.23   5
  -4   5 -14 46216.0 4752.59   4
  -4  -5 -14 45192.8 3878.05   4
  -4  -5 -15 697.113 1080.85   5
  -4   5 -15 555.179 1010.23   4
  -4  -5 -16 26880.0 2786.16   5
  -4  -5 -17 964.958 430.290   5
   4   6 -19 16145.9 2116.63   2
   4   6 -18 17690.3 2601.73   2
   4   6 -17 36203.0 4027.45   2
   4  -6 -17 36432.2 4164.36   6
   4   6 -16 2225.69 1704.30   2
   4  -6 -16 333.488 1721.54   6
   4   6 -15 18976.4 3569.69   2
   4  -6 -15 19405.5 3530.38   6
   4   6 -14 49203.2 5903.40   2
   4  -6 -14 48069.3 5521.24   6
   4   6 -13 11961.4 2987.63   2
   4  -6 -13 8140.04 2701.54   6
   4   6 -12 184229. 10731.3   2
   4  -6 -12 162834. 10190.7   6
   4   6 -11 17464.5 3582.81   2
   4  -6 -11 7743.92 2580.66   6
   4   6 -10 219223. 11392.5   2
  -4  -6  10 191486. 11028.2   7
   4  -6 -10 201159. 11194.4   6
   4   6  -9 113655. 8043.75   2
  -4  -6   9 98179.4 7921.17   7
   4  -6  -9 104805. 8145.53   6
   4   6  -8 128265. 8208.46   2
  -4  -6   8 124242. 8654.87   7
   4  -6  -8 110895. 8055.37   6
   4   6  -7 58173.3 5629.06   2
  -4  -6   7 50808.4 5593.41   7
   4  -6  -7 58791.7 5870.82   6
   4   6  -6 21008.2 3237.54   2
  -4  -6   6 17837.7 3256.64   7
   4  -6  -6 20939.7 3485.61   6
   4   6  -5 78661.7 5963.97   2
  -4  -6   5 82366.2 6452.79   7
   4  -6  -5 86188.7 6769.65   6
   4   6  -5 76079.0 6186.13   1
   4   6  -4-27.6877 286.824   2
  -4  -6   4 364.069 1310.52   7
   4   6  -4 1514.61 1248.00   1
   4  -6  -4 1255.26 1858.63   6
   4   6  -3 6647.19 1799.46   2
   4   6  -3 9064.26 2343.13   1
  -4  -6   3 9868.93 2373.27   7
   4  -6  -3 2128.75 1631.31   6
   4   6  -2 52489.4 5187.98   1
   4   6  -2 48157.9 4538.05   2
  -4  -6   2 52451.0 4775.60   7
   4  -6  -2 55352.5 5646.89   6
   4   6  -1 36724.0 3945.23   2
  -4  -6   1 37774.5 3962.59   7
   4   6  -1 31400.7 4304.57   1
   4   6   0 140716. 7716.18   2
  -4  -6   0 145571. 7572.75   7
   4   6   0 125649. 8127.02   1
   4   6   1 8676.09 2568.75   1
  -4  -6  -1 7731.32 1844.68   7
   4   6   1 11526.5 2665.56   2
   4   6   2 258029. 10719.4   2
   4  -6   2 254758. 10151.7   1
  -4  -6  -2 258674. 9877.08   7
   4  -6   3 14757.1 2570.76   1
  -4  -6  -3 13243.8 2333.64   7
   4   6   3 11931.8 2496.46   1
   4   6   3 15119.2 2757.83   2
   4   6   4 239872. 10944.0   2
  -4  -6  -4 252797. 10892.6   5
   4  -6   4 217451. 9841.47   1
  -4  -6  -4 238781. 9316.84   7
   4   6   4 216436. 10696.3   1
   4   6   5 11879.7 2810.98   1
   4  -6   5 14765.2 2780.58   1
  -4  -6  -5 11935.3 2928.22   5
   4   6   5 16639.3 3555.74   2
   4   6   6 276980. 12445.0   2
  -4  -6  -6 275503. 12041.2   5
   4  -6   6 235533. 10754.0   1
   4   6   6 260611. 11845.4   1
  -4   6  -6 276367. 11753.8   4
  -4  -6  -7 10362.9 2710.84   5
  -4   6  -7 8154.07 2127.83   4
   4   6   7 4024.68 1715.20   1
  -4  -6  -8 120431. 7931.42   5
  -4   6  -8 113763. 8008.53   4
  -4  -6  -9 2326.82 1215.98   5
  -4   6  -9 4373.33 1651.87   4
  -4  -6 -10 58085.0 5439.47   5
  -4   6 -10 52051.7 5562.64   4
  -4  -6 -11 64983.6 5663.18   5
  -4   6 -11 69123.8 6338.52   4
  -4  -6 -12 968.987 1698.84   5
  -4   6 -12 4166.49 1590.80   4
  -4  -6 -12 8.19935 1232.83   4
  -4  -6 -13 3550.72 1728.72   5
  -4   6 -13 6807.81 2168.89   4
  -4  -6 -14 24258.4 2954.83   5
  -4  -6 -15 11431.6 1850.57   5
  -4  -6 -16 52008.8 3577.43   5
   4   7 -18 87157.2 4864.41   2
   4   7 -17 34000.7 3503.59   2
   4  -7 -17 30276.9 3557.74   6
   4   7 -16 106816. 6791.42   2
   4  -7 -16 103683. 6920.67   6
   4   7 -15 99143.6 7087.43   2
   4  -7 -15 93372.3 7020.53   6
   4   7 -14 36379.3 4477.29   2
   4  -7 -14 30292.5 4542.76   6
   4   7 -13 219829. 11076.8   2
   4  -7 -13 218008. 11550.7   6
   4   7 -12 38546.5 4945.45   2
   4  -7 -12 33148.4 4935.59   6
   4   7 -11 219356. 11166.0   2
   4  -7 -11 199623. 11174.1   6
   4   7 -10 6498.58 2620.71   2
   4  -7 -10 4828.60 2307.05   6
   4   7  -9 421931. 14989.2   2
  -4  -7   9 416035. 16571.6   7
   4  -7  -9 413465. 16167.2   6
   4   7  -8 84332.0 6546.59   2
  -4  -7   8 86417.6 7624.85   7
   4  -7  -8 91779.0 7566.46   6
   4   7  -7 287388. 11843.0   2
  -4  -7   7 298969. 13554.7   7
   4  -7  -7 307972. 13647.0   6
   4   7  -6 86701.8 6414.28   2
  -4  -7   6 74829.2 6679.70   7
   4  -7  -6 86244.5 7169.08   6
   4   7  -5 108436. 7109.40   2
  -4  -7   5 110167. 7707.31   7
   4  -7  -5 119312. 8390.81   6
   4   7  -4 97846.6 7706.31   1
   4   7  -4 116426. 7147.03   2
  -4  -7   4 123913. 7863.21   7
   4  -7  -4 125411. 8458.29   6
   4   7  -3 22009.1 3081.82   2
  -4  -7   3 26116.8 3590.01   7
   4   7  -3 23102.1 4035.07   1
   4  -7  -3 30026.2 4410.29   6
   4   7  -2 146486. 7897.07   2
  -4  -7   2 147949. 8014.94   7
   4  -7  -2 164719. 9824.41   6
   4   7  -1 868.810 1663.86   1
  -4  -7   1 4452.35 1604.48   7
   4  -7  -1 5341.34 2585.10   6
   4   7   0 88389.0 7398.95   1
  -4  -7   0 101008. 6470.13   7
  -4  -7  -1 109962. 6520.08   7
   4   7   1 107665. 8182.04   1
  -4  -7  -2 100793. 6145.24   7
   4   7   2 104643. 7908.93   1
  -4  -7  -3 66037.5 4953.26   7
   4   7   3 65765.6 6196.46   1
  -4  -7  -4 7151.36 2428.28   5
   4   7   4 7881.06 2293.93   1
  -4  -7  -5 196392. 10098.3   5
   4   7   5 196661. 10588.9   1
   4   7   6 6411.70 2170.03   1
  -4  -7  -6 5663.57 2549.85   5
  -4  -7  -7 56287.7 5624.39   5
  -4   7  -7 51395.7 5287.07   4
  -4  -7  -8 2328.39 1769.39   5
  -4   7  -8 3411.76 1362.02   4
  -4  -7  -9 54136.8 5354.52   5
  -4   7  -9 51354.9 5485.43   4
  -4  -7 -10 41008.0 4775.70   5
  -4   7 -10 45016.7 5009.54   4
  -4  -7 -11 2016.78 1773.21   5
  -4   7 -11 378.608 1285.04   4
  -4  -7 -12 9092.84 2316.99   5
  -4   7 -12 7786.44 2239.69   4
  -4  -7 -13 1254.73 1002.61   5
  -4  -7 -14 12615.8 2209.10   5
  -4  -7 -15 7209.26 1447.53   5
  -4  -7 -16 935.937 539.179   5
   4   8 -17 77869.3 4475.28   2
   4  -8 -17 90701.0 5503.84   6
   4   8 -16-1259.87 882.906   2
   4  -8 -16-974.704 972.323   6
   4   8 -15 60957.7 4896.15   2
   4  -8 -15 63397.5 5540.12   6
   4   8 -14 1026.18 1328.88   2
   4  -8 -14 1266.00 1595.28   6
   4   8 -13 130464. 7855.12   2
   4  -8 -13 130387. 8779.00   6
   4   8 -12 4858.94 1844.14   2
   4  -8 -12 3710.54 2282.68   6
   4   8 -11 5279.17 1955.63   2
   4  -8 -11 3137.19 2458.72   6
   4   8 -10-1550.78 1314.08   2
   4  -8 -10-256.117 2315.02   6
   4   8  -9 8415.80 2018.20   2
   4  -8  -9 4342.09 2496.87   6
   4   8  -8 5463.10 1644.40   2
   4  -8  -8 1643.78 1844.64   6
   4   8  -7 40671.9 4521.61   2
  -4  -8   7 43120.0 5925.19   7
   4  -8  -7 46788.4 5452.38   6
   4   8  -6 5363.51 1701.85   2
  -4  -8   6 4403.70 1887.57   7
   4  -8  -6 2207.97 1871.26   6
  -4  -8   5 132455. 8889.21   7
   4  -8  -5 139656. 9350.10   6
   4   8  -4-1278.13 1914.14   1
  -4  -8   4 2225.58 1365.90   7
   4  -8  -4 3251.95 1974.64   6
  -4  -8   3 196484. 9898.40   7
   4  -8  -3 215146. 11691.9   6
   4   8  -2-495.761 1091.91   1
  -4  -8   2-1067.58 988.812   7
   4  -8  -2-474.903 1766.86   6
   4   8  -1 237294. 12893.9   1
  -4  -8   1 245832. 10449.3   7
   4   8   0 12810.0 3079.00   1
  -4  -8   0 10771.4 2661.76   7
  -4  -8  -1 70562.5 5310.82   7
   4   8   1 88504.6 7779.83   1
   4   8   2 5685.77 2240.90   1
   4   8   3 16313.6 3301.62   1
  -4  -8  -3 16740.1 3171.68   5
  -4  -8  -4 2053.62 1713.92   5
   4   8   4-2914.27 1703.51   1
  -4  -8  -5 17807.3 3482.20   5
  -4  -8  -6 4003.93 2005.75   5
  -4  -8  -7 210860. 10686.0   5
  -4  -8  -8 6175.57 2148.70   5
  -4  -8  -9 208615. 10276.4   5
  -4   8  -9 210555. 10014.7   4
  -4  -8 -10 2068.71 1997.30   5
  -4  -8 -11 362526. 12515.5   5
  -4  -8 -12 1344.63 1060.38   5
  -4  -8 -13 206281. 8291.41   5
  -4  -8 -14 3911.49 1229.96   5
  -4  -8 -15 129365. 5334.78   5
   4   9 -16 48707.4 3285.63   2
   4  -9 -16 64666.2 4658.94   6
   4  -9 -15 43104.1 4185.29   6
   4   9 -15 38686.8 3435.40   2
   4   9 -14 23132.5 2892.94   2
   4  -9 -14 28286.4 3867.76   6
   4   9 -13 164240. 7932.92   2
   4  -9 -13 179161. 9688.00   6
   4   9 -12 10756.2 2266.83   2
   4  -9 -12 11910.8 2910.19   6
   4   9 -11 286838. 11173.7   2
   4  -9 -11 304581. 13494.5   6
   4   9 -10-1309.89 1636.41   2
   4  -9 -10 944.980 2091.72   6
   4   9  -9 338452. 12356.8   2
   4  -9  -9 338158. 14758.1   6
   4  -9  -8 15092.4 3603.01   6
   4  -9  -7 255837. 12908.3   6
   4  -9  -6 136269. 9410.71   6
   4  -9  -5 87365.7 7570.36   6
   4   9  -4 92948.8 8508.94   1
  -4  -9   4 101243. 7711.09   7
   4  -9  -4 106298. 8412.33   6
   4   9  -3 64402.8 7153.79   1
  -4  -9   3 68708.2 6132.96   7
   4  -9  -3 81005.4 7402.42   6
   4   9  -2 154646. 10915.9   1
  -4  -9   2 150772. 8625.95   7
   4  -9  -2 174907. 10976.8   6
  -4  -9   1 3581.67 1368.55   7
   4   9  -1 3610.12 2066.16   1
   4  -9  -1 3932.15 2525.89   6
   4   9   0 198463. 12102.8   1
  -4  -9  -2 40652.6 4688.53   5
  -4  -9  -3 116109. 7678.95   5
  -4  -9  -4 31608.1 4126.47   5
  -4  -9  -5 102560. 7417.43   5
  -4  -9  -6 962.395 1576.44   5
  -4  -9  -7 156530. 8935.40   5
   4  -9   8-315.107 802.886   3
  -4  -9  -8 3562.19 1872.35   5
  -4  -9  -9 70709.0 5721.39   5
   4  -9   9 70063.2 5732.29   3
   4  -9  10 5768.28 1723.58   3
  -4  -9 -10 7395.23 2081.88   5
   4  -9  11 9166.24 2242.78   3
  -4  -9 -11 13205.2 2501.58   5
  -4  -9 -12 11908.3 2118.49   5
  -4  -9 -13 13860.3 2072.16   5
  -4  -9 -14 2055.21 795.578   5
   4 -10 -16 3364.94 1073.58   6
   4 -10 -15 17854.5 2484.61   6
   4 -10 -14 37746.8 3899.66   6
   4 -10 -13 30107.7 3892.40   6
   4 -10 -12 67012.0 5881.93   6
   4 -10 -11 1394.42 1100.93   6
   4 -10 -10 189228. 10548.0   6
   4 -10  -9 5922.95 2530.18   6
   4 -10  -8 95820.8 7794.41   6
   4 -10  -7 8363.44 3217.17   6
   4 -10  -6 96737.6 7953.02   6
   4 -10  -5 65293.6 6648.37   6
   4 -10  -4 2796.67 2517.34   6
   4 -10  -3 34391.3 5159.12   6
   4 -10  -2 78612.4 7487.60   6
   4 -10  -1 116686. 9214.21   6
  -4 -10   0 95995.6 6787.19   5
   4 -10   0 103633. 8741.03   6
  -4 -10  -1 3819.42 2203.95   5
  -4 -10  -2 248305. 11023.0   5
  -4 -10  -3 18826.5 3384.76   5
  -4 -10  -4 290712. 11932.1   5
  -4 -10  -5-62.3424 1739.10   5
  -4 -10  -6 157362. 8750.49   5
  -4 -10  -7 28850.7 3696.70   5
   4 -10   7 28464.5 3834.42   3
  -4 -10  -8 114800. 6996.85   5
   4 -10   8 115461. 7165.42   3
   4 -10   9 12223.2 2268.96   3
  -4 -10  -9 16596.6 2697.04   5
   4 -10  10 8614.96 1787.37   3
  -4 -10 -10 10383.6 2285.26   5
  -4 -10 -11 17152.3 2441.57   5
  -4 -10 -12 4504.18 1294.91   5
  -4 -10 -13 15943.9 1964.36   5
   4 -11 -15 8229.66 1506.92   6
   4 -11 -14 155945. 6818.91   6
   4 -11 -13 16823.0 2666.84   6
   4 -11 -12 79904.7 5829.55   6
   4 -11 -11 22507.0 3371.12   6
   4 -11 -10 3776.13 1934.15   6
   4 -11  -9 7044.18 2452.01   6
   4 -11  -8 62987.8 6373.37   6
   4 -11  -7 4790.90 2546.35   6
   4 -11  -6 125280. 8994.61   6
   4 -11  -5 7952.04 2621.47   6
   4 -11  -4 219199. 11888.1   6
   4 -11  -3 2122.08 2207.57   6
   4 -11  -2 331461. 14975.5   6
  -4 -11   1 7568.48 2186.53   5
   4 -11  -1 6569.59 2680.64   6
  -4 -11   0 335626. 11958.5   5
   4 -11   0 363927. 15722.2   6
  -4 -11  -1 827.556 1345.55   5
   4 -11   1 5766.38 2211.18   6
  -4 -11  -2 168842. 8610.29   5
  -4 -11  -3 1451.02 1545.52   5
  -4 -11  -4 46910.6 4652.15   5
  -4 -11  -5-267.445 1269.29   5
  -4 -11  -6 9192.49 2017.58   5
  -4 -11  -7 2017.77 1130.26   5
   4 -11   7 2608.78 1239.97   3
  -4 -11  -8 5402.19 1667.85   5
   4 -11   8 5440.45 2061.73   3
  -4 -11  -9 1007.03 656.232   5
  -4 -11 -10 66995.7 4249.10   5
  -4 -11 -11-806.882 574.836   5
  -4 -11 -12 78515.5 3689.69   5
   4 -12 -13 5274.53 1427.76   6
   4 -12 -12 22998.5 2936.48   6
   4 -12 -11 3602.87 1197.89   6
   4 -12 -10 85092.3 6083.34   6
   4 -12  -9 12419.0 2443.17   6
   4 -12  -8 24849.6 3868.74   6
   4 -12  -7 18088.8 3391.56   6
   4 -12  -6 38679.4 4871.55   6
   4 -12  -5 117397. 8285.37   6
   4 -12  -4 18621.2 3556.73   6
   4 -12  -3 144938. 9418.98   6
   4 -12  -2 15716.2 3307.05   6
   4 -12  -1 31485.8 4816.63   6
   4 -12   0 16149.6 3383.33   6
   4 -12   1 37724.9 4953.75   6
  -4 -12  -2 95159.4 5735.29   5
   4 -12   2 107157. 7935.17   6
  -4 -12  -3 131.613 761.936   5
   4 -12   3 1160.31 1610.79   6
  -4 -12  -4 140266. 6847.13   5
   4 -12   4 140093. 8560.93   6
  -4 -12  -5 30680.9 3284.43   5
  -4 -12  -6 142230. 6503.79   5
  -4 -12  -7 63737.0 4196.49   5
   4 -12   7 64771.5 4972.01   6
  -4 -12  -8 92323.1 4726.14   5
   4 -12   8 92208.9 5360.79   6
  -4 -12  -9 107333. 4667.67   5
   4 -13 -12 15337.2 1862.14   6
   4 -13 -11 257132. 8373.76   6
   4 -13 -10 4872.45 1601.64   6
   4 -13  -9 346049. 11321.5   6
   4 -13  -8 3101.86 1105.82   6
   4 -13  -7 313752. 11749.7   6
   4 -13  -6 10439.3 2411.66   6
   4 -13  -5 95846.5 6834.51   6
   4 -13  -4 32374.5 4350.91   6
   4 -13  -3 28860.3 3994.93   6
   4 -13  -2 25462.1 3815.29   6
   4 -13  -1 2957.98 1436.00   6
   4 -13   0 9090.40 2517.84   6
   4 -13   1 82267.7 6469.65   6
   4 -13   2 17035.6 2882.73   6
   4 -13   3 132612. 7701.37   6
   4 -13   4 1957.19 956.033   6
   4 -13   5 118853. 6675.75   6
   4 -13   6 517.231 849.713   6
   4 -13   7 98056.3 5027.54   6
   4 -14  -9 14000.0 1919.62   6
   4 -14  -8 8621.17 1681.08   6
   4 -14  -7 31068.9 3199.57   6
   4 -14  -6 908.913 1255.27   6
   4 -14  -5 108116. 6364.47   6
   4 -14  -4 2962.98 1267.65   6
   4 -14  -3 151346. 7761.25   6
   4 -14  -2 2171.01 1474.09   6
   4 -14  -1 91193.4 6028.93   6
   4 -14   0 35424.9 3787.04   6
   4 -14   1 57387.2 4718.27   6
   4 -14   2 8114.62 1920.71   6
   4 -14   3 8303.51 1655.66   6
   4 -14   4 30510.8 3065.68   6
   4 -14   5 12824.8 1815.00   6
   4 -15  -6 106140. 4862.24   6
   4 -15  -5 77124.5 4320.55   6
   4 -15  -4 154669. 6287.26   6
   4 -15  -3 24910.6 2711.98   6
   4 -15  -2 173643. 6828.07   6
   4 -15  -1 3363.58 1261.57   6
   4 -15   0 104000. 5167.83   6
   4 -15   1 12552.5 1831.69   6
   4 -15   2 31964.5 2678.81   6
   5   0 -19 73588.6 4380.45   2
   5   0 -18-142.106 590.096   2
   5   0 -17 241426. 10668.3   2
   5   0 -16 1237.85 1695.80   2
   5   0 -15 218642. 11757.8   2
   5   0 -14 1032.13 1773.31   2
   5   0 -13 188648. 11582.1   2
   5   0 -12 1418.43 2213.73   2
   5   0 -11 120525. 9254.12   2
   5   0 -11 131885. 8556.40   6
   5   0 -10 583.429 1919.42   2
   5   0  -9 18656.8 3467.61   2
   5   0  -8 1345.80 1998.01   2
  -5   0   8-718.364 664.110   7
   5   0  -7 9458.12 2480.47   2
  -5   0   7 9201.09 1948.48   7
   5   0  -6 989.501 1726.12   2
  -5   0   6-617.198 744.827   7
   5   0  -5 135074. 8606.27   2
  -5   0   5 147512. 7922.32   7
   5   0  -4 620.967 1079.85   2
   5   0  -3 188141. 9880.70   2
   5   0  -2-1493.41 1191.58   1
   5   0  -2 79.3126 973.813   2
   5   0  -1 236549. 11309.8   2
   5   0  -1 261645. 9329.48   1
   5   0   0-1737.86 1554.46   2
   5   0   0 7.53945 770.715   1
   5   0   1 57296.9 5934.17   2
   5   0   1 63907.8 4868.61   1
   5   0   2 230.108 1799.18   2
   5   0   2 607.240 940.543   1
   5   0   3 21166.5 4110.17   2
   5   0   3 19374.9 2955.91   1
   5   0   4-901.363 1211.63   2
   5   0   4 283.973 733.838   1
   5   0   5 6322.24 2716.76   2
   5   0   5 6402.42 2187.44   1
   5   0   6 1300.48 1647.50   2
   5   0   6-2376.88 1491.36   1
   5   0   7 107007. 9356.00   2
   5   0   7 99404.7 7146.69   1
  -5   0 -10 1308.69 1519.42   4
  -5   0 -11 60640.3 5906.86   4
  -5   0 -12 230.475 1491.19   4
  -5   0 -13 60379.9 5418.84   4
  -5   0 -14 704.762 917.204   4
  -5   0 -15 25378.6 2908.65   4
  -5   0 -16-195.213 440.309   4
   5   1 -19 14640.1 2256.88   2
   5  -1 -18 25826.4 2951.11   2
   5   1 -18 34902.3 3815.21   2
   5  -1 -17 2128.67 1272.75   2
   5   1 -17 1987.78 1583.35   2
   5  -1 -16 55931.7 5337.05   2
   5   1 -16 50003.4 5642.41   2
   5  -1 -15 29725.8 4439.07   2
   5   1 -15 31614.7 4956.80   2
   5  -1 -14 55186.5 6063.89   2
   5   1 -14 65763.6 7041.69   2
   5  -1 -13 22338.9 3779.00   2
   5   1 -13 17157.8 4306.06   2
   5  -1 -13 16984.8 3344.12   6
   5  -1 -12 18536.4 4028.28   2
   5   1 -12 15786.8 4232.72   2
   5  -1 -12 20781.0 3689.30   6
   5  -1 -11 111695. 8432.47   2
   5   1 -11 95138.0 8409.57   2
   5  -1 -11 107698. 7903.29   6
   5  -1 -10 533.425 997.409   2
   5   1 -10 1549.89 1346.40   2
   5  -1 -10-1751.28 1288.08   6
   5  -1  -9 109657. 8131.64   2
   5   1  -9 106552. 8469.61   2
  -5  -1   9 105063. 6762.91   7
  -5  -1   8 12273.1 2461.32   7
   5  -1  -8 18694.6 3532.85   2
   5   1  -8 17161.3 3486.71   2
   5  -1  -7 61155.5 6054.89   2
   5   1  -7 65486.5 6335.02   2
  -5   1   7 61816.4 4746.76   7
  -5  -1   7 56651.7 4923.15   7
   5  -1  -6 63905.4 5974.31   2
   5   1  -6 67574.9 6194.75   2
  -5   1   6 67945.8 5149.32   7
  -5  -1   6 67586.0 5449.87   7
   5  -1  -5 76540.5 6603.84   2
   5   1  -5 79601.0 6692.22   2
  -5  -1   5 92792.6 6457.43   7
   5  -1  -4 60728.3 5751.91   2
   5   1  -4 66502.2 6128.59   2
   5   1  -3 10266.2 2529.93   2
   5   1  -3 9874.34 1834.10   1
   5  -1  -3 9596.68 2318.20   2
   5   1  -2 38750.8 3635.17   1
   5  -1  -2 44983.9 4975.36   2
   5   1  -2 38517.4 4627.83   2
   5  -1  -2 41656.6 3659.01   1
   5   1  -1 8603.86 1851.17   1
   5  -1  -1 8339.70 1745.40   1
   5  -1  -1 7697.15 2401.94   2
   5   1  -1 7971.84 2448.39   2
   5   1   0 101715. 6136.93   1
   5  -1   0 97448.5 7404.69   2
   5   1   0 102472. 7522.97   2
   5  -1   0 106744. 6060.74   1
   5   1   1 50261.3 4516.60   1
   5  -1   1 45175.7 5262.67   2
   5   1   1 51403.9 5656.12   2
   5  -1   1 53213.9 4393.08   1
   5   1   2 71978.1 5419.09   1
   5  -1   2 68822.2 6695.60   2
   5   1   2 70956.2 6433.29   2
   5  -1   2 71085.0 5370.07   1
   5   1   3 352242. 12165.3   1
   5  -1   3 341868. 15125.8   2
   5   1   3 367502. 14862.5   2
   5  -1   3 372043. 12334.2   1
   5   1   4 26099.1 3686.48   1
  -5  -1  -4 21453.7 3353.83   5
   5  -1   4 22633.5 4324.17   2
   5   1   4 19501.2 3701.51   2
   5  -1   4 19759.5 3059.09   1
   5   1   5 146099. 8381.65   1
   5  -1   5 135907. 10186.6   2
   5   1   5 143570. 9863.00   2
  -5  -1  -5 149039. 8131.41   5
   5  -1   5 147576. 8286.79   1
  -5  -1  -6 2639.43 1361.79   5
   5  -1   6 2006.76 2737.25   2
   5   1   6-3009.79 1940.50   2
   5  -1   6 374.225 1078.17   1
   5   1   6-236.919 466.943   1
   5  -1   7 312940. 15632.9   2
   5   1   7 285794. 14437.8   2
  -5  -1  -7 288431. 11483.5   5
  -5  -1  -8 4401.88 1625.65   5
  -5  -1  -9 93217.2 6363.09   5
  -5   1  -9 94941.2 7490.90   4
  -5  -1 -10 44330.7 4319.18   5
  -5   1 -10 43434.7 5050.05   4
  -5  -1 -10 39601.9 4806.54   4
  -5  -1 -11 72920.4 5286.41   5
  -5   1 -11 72928.0 6460.16   4
  -5  -1 -11 73502.1 6449.59   4
  -5   1 -12 45028.9 4837.12   4
  -5  -1 -12 39150.8 4583.75   4
  -5   1 -13 464.140 1611.00   4
  -5  -1 -13 1603.07 1435.90   4
  -5   1 -14 78014.1 5810.80   4
  -5  -1 -14 80223.4 5579.56   4
  -5   1 -15 3900.19 1451.41   4
  -5  -1 -15 3016.74 1417.70   4
  -5   1 -16 15928.6 1968.23   4
  -5  -1 -16 13984.3 1768.75   4
   5   2 -19 19080.9 2449.32   2
   5   2 -18 24205.6 3408.70   2
   5   2 -17 56108.2 5546.56   2
   5  -2 -16 11260.3 2403.30   2
   5   2 -16 12121.6 2799.58   2
   5  -2 -15 28368.9 3856.02   2
   5   2 -15 29680.5 4590.26   2
   5  -2 -14 17898.1 3661.38   2
   5   2 -14 20558.4 4187.30   2
   5  -2 -14 19882.7 3898.35   6
   5  -2 -13 66527.6 6332.27   2
   5   2 -13 64984.9 7408.38   2
   5  -2 -13 60949.4 6194.53   6
   5  -2 -12 117115. 8305.37   2
   5   2 -12 96577.1 8739.60   2
   5  -2 -12 118600. 8393.65   6
   5  -2 -11 36043.7 4613.13   2
   5   2 -11 33863.8 5157.11   2
   5  -2 -11 33343.7 4375.18   6
   5  -2 -10 127649. 8573.87   2
   5   2 -10 116751. 9188.52   2
  -5  -2  10 112636. 7434.54   7
   5  -2 -10 143236. 8994.34   6
   5  -2  -9 60.2829 587.290   2
   5   2  -9 2562.75 1774.21   2
  -5  -2   9 3007.35 1597.96   7
   5  -2  -9 3189.78 1870.17   6
   5  -2  -8 285358. 12584.0   2
   5   2  -8 276675. 13274.1   2
  -5  -2   8 274379. 11244.4   7
   5  -2  -7 5384.94 1803.20   2
   5   2  -7 4385.68 1972.06   2
  -5  -2   7 3486.60 1580.84   7
   5  -2  -6 238583. 11249.3   2
   5   2  -6 256821. 12149.1   2
  -5  -2   6 255313. 10788.7   7
   5  -2  -5 4587.41 2546.51   2
   5   2  -5 4922.05 2177.23   2
  -5  -2   5 8479.22 2226.88   7
   5   2  -4 198961. 10246.9   2
  -5  -2   4 205291. 9823.45   7
   5   2  -3 123.140 1338.37   2
   5   2  -3 1434.72 1149.58   1
   5  -2  -3 101.936 1594.69   2
   5   2  -2 39838.7 3906.97   1
   5  -2  -2 39183.2 4700.63   2
   5   2  -2 39030.2 4602.33   2
   5  -2  -2 41817.4 3895.09   1
   5  -2  -1 30236.5 4506.70   2
   5   2  -1 35563.8 3638.08   1
   5   2  -1 43207.6 4659.37   2
   5  -2  -1 36949.9 3592.49   1
   5   2   0 5576.02 1799.32   1
   5  -2   0 4528.55 1648.29   1
   5  -2   0 5130.86 1926.38   2
   5   2   0 5622.73 1946.64   2
   5   2   1 30763.4 3833.12   1
   5  -2   1 25116.7 3039.05   1
   5  -2   1 23824.8 4057.43   2
   5   2   1 22297.1 3555.51   2
   5   2   2 15678.1 2652.81   1
   5  -2   2 15484.3 3512.32   2
   5  -2   2 17051.3 2696.07   1
   5   2   2 18896.8 3258.88   2
   5   2   3-9.76844 1273.48   1
   5  -2   3 1405.32 1236.33   1
   5  -2   3 2576.28 2206.70   2
   5   2   3 2847.41 2082.57   2
   5  -2   4 47860.0 5912.16   2
   5   2   4 46129.4 4946.76   1
   5   2   4 40510.2 5182.77   2
  -5  -2  -4 48144.0 4696.28   5
   5  -2   4 47670.7 4655.41   1
   5   2   5 16775.4 3138.01   1
  -5  -2  -5 17912.2 3139.14   5
   5  -2   5 22536.3 4689.03   2
   5  -2   5 16210.5 2814.06   1
   5   2   5 21128.8 3722.40   2
   5   2   6 110595. 7635.42   1
   5  -2   6 122561. 10008.2   2
   5   2   6 120304. 9230.83   2
  -5  -2  -6 132153. 7917.47   5
   5  -2   6 112371. 7379.41   1
  -5  -2  -7 2315.13 1553.59   5
   5   2   7 2447.36 1670.11   2
  -5  -2  -8 59271.6 5390.84   5
  -5   2  -8 55138.6 5692.97   4
  -5  -2  -9 6785.72 1980.87   5
  -5   2  -9 8861.87 2518.88   4
  -5  -2 -10 7786.15 1801.38   5
  -5   2 -10 7021.23 2454.01   4
  -5  -2 -11 15688.0 2625.02   5
  -5   2 -11 13558.4 3157.65   4
  -5  -2 -11 11343.3 2780.58   4
  -5  -2 -12 300.940 374.744   5
  -5   2 -12 2034.93 1338.73   4
  -5  -2 -12 2060.51 1168.62   4
  -5  -2 -13 36513.5 3415.31   5
  -5   2 -13 40860.0 4435.43   4
  -5  -2 -13 35969.3 4066.17   4
  -5  -2 -14 8888.63 1580.89   5
  -5   2 -14 7672.91 2132.99   4
  -5  -2 -14 9812.23 1995.87   4
  -5   2 -15 3831.33 1173.48   4
  -5  -2 -15 2647.12 1176.60   4
  -5   2 -16 47246.5 3262.25   4
   5   3 -19 671.339 784.488   2
   5   3 -18 67171.5 5336.14   2
   5   3 -17 1978.55 1736.51   2
   5   3 -16 118797. 8481.89   2
   5   3 -15 2002.04 2122.68   2
   5  -3 -15 1506.70 970.785   6
   5   3 -14 82322.6 7796.39   2
   5  -3 -14 70197.5 6558.26   6
   5   3 -13 7662.66 3547.83   2
   5  -3 -13 6004.07 2490.62   6
   5   3 -12 22870.7 4699.15   2
   5  -3 -12 22714.7 3956.00   6
   5   3 -11-1004.16 2372.48   2
   5  -3 -11 1299.49 1943.33   6
   5   3 -10 245.288 1565.15   2
  -5  -3  10 206.426 1369.37   7
   5  -3 -10-600.690 1235.44   6
   5   3  -9 4722.10 2030.07   2
  -5  -3   9 4545.24 1626.78   7
   5  -3  -9 5484.24 1994.03   6
   5   3  -8 24888.1 4250.65   2
  -5  -3   8 27021.4 3886.58   7
   5  -3  -8 32020.6 4625.20   6
   5   3  -7 5536.67 2174.61   2
  -5  -3   7 8376.69 2324.96   7
   5  -3  -6 230688. 10800.0   2
   5   3  -6 204952. 11041.0   2
  -5  -3   6 224295. 10522.1   7
   5   3  -5 24267.2 3833.15   2
  -5  -3   5 24593.7 3594.55   7
   5  -3  -5 19623.7 3499.70   2
   5  -3  -4 312259. 12691.4   2
   5   3  -4 322868. 13148.7   2
   5   3  -3 17051.6 3058.42   2
   5   3  -3 21756.2 2921.96   1
  -5  -3   3 17864.1 3144.31   7
   5  -3  -3 16678.8 3260.57   2
   5  -3  -2 291404. 12626.0   2
   5   3  -2 320116. 12903.6   2
   5   3  -2 306574. 11111.7   1
   5  -3  -2 337648. 10708.0   1
   5  -3  -1 14928.4 2426.04   1
   5   3  -1 12479.5 2416.12   1
   5  -3  -1 13207.4 3210.89   2
   5   3  -1 16861.1 3039.36   2
   5  -3   0 282907. 12941.4   2
   5   3   0 305267. 12606.0   2
   5   3   0 282704. 11183.5   1
   5  -3   0 294285. 10401.5   1
   5   3   1 1301.29 1075.72   1
   5  -3   1-691.193 884.317   1
   5  -3   1 3658.16 1632.21   2
   5   3   1 3539.41 1997.63   2
   5  -3   2 170630. 10744.3   2
   5   3   2 183969. 10208.3   2
   5   3   2 175150. 9134.15   1
   5  -3   2 185412. 8545.04   1
   5   3   3 17370.4 3340.68   1
   5  -3   3 19391.8 2992.12   1
   5  -3   3 14532.6 3472.78   2
   5   3   3 15789.5 3004.51   2
   5  -3   4 38058.0 5671.81   2
   5   3   4 49313.8 5621.78   2
   5   3   4 41954.1 4828.28   1
  -5  -3  -4 46013.5 4703.74   5
   5  -3   4 46801.0 4714.87   1
   5  -3   5 52771.4 6645.67   2
   5   3   5 56869.2 6035.30   2
   5   3   5 51167.4 5207.44   1
  -5  -3  -5 53726.2 5072.42   5
   5  -3   5 43035.6 4562.51   1
   5   3   6 682.525 1056.98   1
  -5  -3  -6 1322.80 1336.90   5
   5  -3   6 2146.60 1501.70   1
   5   3   6-437.518 1114.37   2
  -5  -3  -7 6189.91 2138.10   5
   5   3   7 4023.35 1862.47   2
  -5   3  -7 3853.24 1815.54   4
  -5  -3  -8 4223.53 1738.46   5
  -5   3  -8 2507.05 1234.87   4
  -5  -3  -9 20214.3 3027.57   5
  -5   3  -9 17086.1 3355.89   4
  -5  -3 -10 132679. 7633.49   5
  -5   3 -10 124248. 8625.39   4
  -5  -3 -11 17713.1 2709.48   5
  -5  -3 -11 17394.4 3036.69   4
  -5   3 -11 18314.9 3123.82   4
  -5  -3 -12 82961.0 5546.33   5
  -5   3 -12 88827.3 6856.41   4
  -5  -3 -12 84159.5 6090.66   4
  -5  -3 -13 1502.82 786.135   5
  -5   3 -13 1807.37 953.103   4
  -5  -3 -13 3626.28 1555.07   4
  -5  -3 -14 108310. 5314.22   5
  -5   3 -14 108489. 6456.87   4
  -5  -3 -14 110811. 5952.55   4
  -5   3 -15-18.8337 681.591   4
  -5  -3 -15-1623.26 924.145   4
   5   4 -19 77453.6 4439.76   2
   5   4 -18 18462.6 2834.10   2
   5   4 -17 118619. 7517.64   2
   5   4 -16 10796.1 2571.60   2
   5   4 -15 185175. 10967.9   2
   5  -4 -15 146303. 8945.66   6
   5   4 -14 2867.65 2153.04   2
   5  -4 -14 7927.71 2944.84   6
   5   4 -13 127344. 9771.52   2
   5  -4 -13 104098. 8082.43   6
   5   4 -12 105797. 8853.38   2
   5  -4 -12 98670.0 7757.02   6
   5   4 -11 100645. 8600.11   2
   5  -4 -11 93014.4 7673.59   6
   5   4 -10 128384. 9521.82   2
   5  -4 -10 118757. 8433.45   6
   5   4  -9 34980.5 4884.82   2
  -5  -4   9 36734.5 4523.48   7
   5  -4  -9 35057.4 4719.70   6
   5   4  -8 238179. 12356.9   2
  -5  -4   8 225994. 11226.0   7
   5  -4  -8 234161. 11553.2   6
   5   4  -7 848.706 1123.15   2
  -5  -4   7 358.928 1203.96   7
   5  -4  -7-563.888 2268.99   6
   5   4  -6 17744.0 3405.95   2
  -5  -4   6 20753.4 3355.64   7
   5   4  -5 4153.10 1675.29   2
  -5  -4   5 5329.78 1842.00   7
   5   4  -4 94925.3 7153.03   2
  -5  -4   4 92180.7 6822.05   7
   5   4  -3 96214.4 7212.86   2
   5   4  -3 87916.6 6208.30   1
  -5  -4   3 92947.0 6928.39   7
   5   4  -2 23252.1 3801.53   2
   5   4  -2 21800.2 3360.38   1
  -5  -4   2 21280.7 3343.46   7
   5   4  -1 108862. 7522.68   2
   5   4  -1 99550.7 6960.45   1
  -5  -4   1 109133. 7416.98   7
   5  -4  -1 110360. 6565.97   1
   5  -4   0 5464.79 1715.79   1
   5   4   0 7255.22 1913.19   1
   5   4   0 4164.58 1466.92   2
   5  -4   1 38918.6 5042.17   2
   5   4   1 36104.6 4605.37   2
   5   4   1 35895.1 4299.59   1
   5  -4   1 33854.8 3885.89   1
   5  -4   2 9406.42 1979.78   1
   5  -4   2 9277.58 2961.06   2
   5   4   2 11271.0 2574.79   1
   5   4   2 9277.87 2461.59   2
   5  -4   3 73283.8 7448.75   2
   5   4   3 84432.9 7062.92   2
   5   4   3 71161.0 6125.95   1
   5  -4   3 80626.6 6110.08   1
   5  -4   4 43633.4 5665.76   2
   5   4   4 42353.8 5194.99   2
  -5  -4  -4 45899.0 4895.05   5
   5   4   4 43321.9 4979.65   1
   5  -4   4 48157.6 4859.16   1
   5   4   5 1410.85 1195.09   1
  -5  -4  -5-384.575 844.436   5
   5  -4   5 2569.21 1244.49   1
   5   4   5 1208.73 979.135   2
  -5   4  -5 1764.65 1262.30   4
   5   4   6 73177.4 6908.04   2
  -5  -4  -6 73573.0 6188.96   5
  -5   4  -6 79339.8 6747.70   4
  -5  -4  -7 9596.37 2562.29   5
   5   4   7 9829.35 2636.19   2
  -5   4  -7 6300.17 2389.27   4
  -5  -4  -8 56219.2 5419.37   5
  -5   4  -8 54772.5 5582.00   4
  -5  -4  -9 40175.6 4459.75   5
  -5   4  -9 34870.7 4601.63   4
  -5  -4 -10 25690.7 3395.00   5
  -5   4 -10 26619.8 3865.42   4
  -5  -4 -11 60008.5 5073.64   5
  -5   4 -11 61436.3 5790.05   4
  -5  -4 -11 57673.2 5174.05   4
  -5  -4 -12 5276.84 1439.91   5
  -5   4 -12 5566.44 1817.63   4
  -5  -4 -12 5545.51 2062.12   4
  -5  -4 -13 34803.7 3309.21   5
  -5   4 -13 32696.9 3874.77   4
  -5  -4 -13 37123.5 3565.42   4
  -5  -4 -14 6243.73 1268.42   5
  -5   4 -14 6021.25 1214.22   4
  -5  -4 -14 5987.43 1364.46   4
  -5  -4 -15 19073.3 1931.33   5
   5   5 -18 1313.80 1018.58   2
   5   5 -17 3407.59 1708.84   2
   5   5 -16 536.725 1013.48   2
   5  -5 -16 1714.25 1361.47   6
   5   5 -15 7033.01 2139.52   2
   5  -5 -15 11346.9 2931.32   6
   5   5 -14 3302.25 2014.60   2
   5  -5 -14 2533.26 2040.14   6
   5   5 -13 70044.0 7054.72   2
   5  -5 -13 60337.2 6081.11   6
   5   5 -12 12373.6 3014.79   2
   5  -5 -12 7125.56 2790.67   6
   5   5 -11 71171.3 7090.12   2
   5  -5 -11 66700.8 6642.74   6
   5   5 -10 14787.9 3011.61   2
   5  -5 -10 9882.21 2969.95   6
   5   5  -9 207408. 11600.3   2
   5  -5  -9 200699. 11130.5   6
   5   5  -8 9085.08 2687.04   2
  -5  -5   8 7383.08 2344.81   7
   5  -5  -8 10797.6 3136.78   6
   5   5  -7 206292. 11154.6   2
  -5  -5   7 213773. 11163.6   7
   5  -5  -7 201177. 10870.6   6
   5   5  -6-1584.13 1428.46   2
  -5  -5   6-1321.44 840.169   7
   5  -5  -6 1515.26 2561.61   6
   5   5  -5 157162. 9453.41   2
  -5  -5   5 171240. 9581.61   7
   5  -5  -5 162626. 9572.08   6
   5   5  -4 1787.83 1504.80   2
  -5  -5   4-303.479 869.704   7
   5   5  -3 13010.2 2843.90   1
  -5  -5   3 23466.4 3526.50   7
   5   5  -3 19049.6 3116.89   2
   5   5  -2 90305.6 6958.28   2
  -5  -5   2 95255.7 7058.83   7
   5   5  -2 81676.3 6720.17   1
   5   5  -1 13704.4 2764.28   1
   5  -5  -1 20236.7 2877.17   1
  -5  -5   1 21204.1 3237.74   7
   5   5  -1 19475.3 3558.80   2
   5   5   0 20378.4 3602.26   1
  -5  -5   0 22771.2 3278.70   7
   5  -5   0 24673.7 3473.00   1
   5   5   0 19759.1 3359.01   2
   5   5   1 141757. 8830.81   2
  -5  -5  -1 152190. 8572.97   7
   5   5   1 120180. 8201.84   1
   5  -5   1 131704. 7708.78   1
   5   5   2 74619.0 6417.44   2
   5   5   2 64611.6 6080.39   1
   5  -5   2 69994.7 5728.04   1
   5   5   3 238511. 11625.6   2
   5  -5   3 222531. 10397.8   1
   5   5   4 24008.4 3847.19   2
  -5  -5  -4 22927.0 3381.19   5
   5  -5   4 21018.6 3516.22   1
   5   5   4 17868.4 3161.51   1
  -5  -5  -5 421515. 14722.1   5
  -5   5  -5 421530. 14591.2   4
  -5  -5  -6-1835.16 1316.43   5
   5   5   6 1792.06 1624.78   2
  -5   5  -6-1215.62 1056.17   4
   5   5   7 179898. 10468.8   2
  -5  -5  -7 187677. 9886.15   5
  -5   5  -7 192963. 10382.2   4
  -5  -5  -8 6019.95 2142.24   5
  -5   5  -8 4717.41 1956.51   4
  -5  -5  -9 193203. 9559.17   5
  -5   5  -9 193652. 10436.9   4
  -5  -5 -10 31434.9 3912.56   5
  -5   5 -10 26136.4 3930.26   4
  -5  -5 -11 27817.8 3367.05   5
  -5   5 -11 27065.7 3563.98   4
  -5  -5 -11 26370.0 3396.19   4
  -5  -5 -12 10616.8 2017.26   5
  -5   5 -12 9247.92 2159.53   4
  -5  -5 -12 7308.76 1840.56   4
  -5  -5 -13 484.963 639.348   5
  -5   5 -13 1299.42 985.741   4
  -5  -5 -13 637.500 527.280   4
  -5  -5 -14 1749.16 768.210   5
  -5  -5 -14 406.198 667.428   4
   5   6 -18 9863.84 1619.44   2
   5   6 -17 161651. 7350.06   2
   5   6 -16 13297.5 2299.29   2
   5  -6 -16 13103.7 2274.78   6
   5   6 -15 248974. 11034.9   2
   5  -6 -15 228483. 10576.7   6
   5   6 -14-1423.61 1632.66   2
   5  -6 -14 2883.98 1722.71   6
   5   6 -13 242198. 12030.1   2
   5  -6 -13 219594. 11266.9   6
   5   6 -12 64800.3 6551.35   2
   5  -6 -12 46587.1 5425.74   6
   5   6 -11 120696. 8820.08   2
   5  -6 -11 107520. 8222.07   6
   5   6 -10 58867.6 6303.78   2
   5  -6 -10 56173.1 6269.23   6
   5   6  -9 9461.92 2533.02   2
   5  -6  -9 10390.3 3096.69   6
   5   6  -8-853.884 822.807   2
   5  -6  -8 1329.30 2062.69   6
   5   6  -7 4826.52 1774.38   2
   5  -6  -7 4810.43 2339.15   6
   5   6  -6 2640.82 1706.65   2
  -5  -6   6 11030.4 2625.16   7
   5  -6  -6 8619.16 2481.70   6
   5   6  -5 29395.7 4177.13   2
  -5  -6   5 22247.9 3815.80   7
   5  -6  -5 18620.8 3645.01   6
   5   6  -4 10615.0 2708.35   2
  -5  -6   4 10702.9 2585.29   7
   5  -6  -4 15509.6 3506.61   6
   5   6  -3 67603.2 6009.33   2
  -5  -6   3 63372.6 5948.11   7
   5   6  -3 52105.1 5451.39   1
   5   6  -2 6343.58 1907.44   1
  -5  -6   2 5611.43 2075.96   7
   5   6  -2 8191.15 2026.74   2
   5   6  -1 173796. 9532.64   2
  -5  -6   1 183928. 9514.53   7
   5   6   0 1824.15 1289.12   1
  -5  -6   0 2486.12 1744.14   7
   5   6   0 508.536 1113.05   2
   5   6   1 61150.3 5800.17   2
  -5  -6  -1 72795.7 5919.99   7
   5   6   2 22578.3 3951.86   1
   5   6   2 34314.9 4648.47   2
  -5  -6  -2 28733.6 4015.49   7
   5   6   3 42875.3 5033.81   2
  -5  -6  -3 47118.7 4981.92   5
  -5  -6  -3 42814.5 4644.01   7
  -5  -6  -4 1862.74 1451.30   5
   5   6   4 1968.44 1486.70   2
  -5  -6  -5 9419.46 2237.61   5
   5   6   5 12825.5 2867.42   2
  -5  -6  -6 10992.5 2395.19   5
   5   6   6 6863.17 2191.12   2
  -5  -6  -7 11558.7 2547.49   5
  -5   6  -7 10606.0 2350.24   4
  -5  -6  -8 6778.01 2082.21   5
  -5   6  -8 7159.19 1932.24   4
  -5  -6  -9 35493.8 4112.11   5
  -5   6  -9 33188.3 4127.36   4
  -5  -6 -10 1368.29 1198.89   5
  -5   6 -10-271.908 792.655   4
  -5  -6 -11 81235.7 5530.68   5
  -5   6 -11 85096.0 6130.13   4
  -5  -6 -11 73462.2 4999.05   4
  -5  -6 -12 2414.57 1082.95   5
  -5   6 -12 1281.99 1068.88   4
  -5  -6 -12-464.061 478.121   4
  -5  -6 -13 60521.4 4064.87   5
  -5  -6 -14 2529.00 748.515   5
   5   7 -17 746.565 447.994   2
   5   7 -16 60150.4 4555.38   2
   5  -7 -16 57637.4 4581.21   6
   5   7 -15 2163.04 1409.33   2
   5  -7 -15 3135.05 1566.05   6
   5   7 -14 14120.8 3013.16   2
   5  -7 -14 12824.6 2633.83   6
   5   7 -13 42819.9 4884.82   2
   5  -7 -13 37958.6 4722.83   6
   5   7 -12 9967.02 2378.95   2
   5  -7 -12 4835.04 2318.61   6
   5   7 -11 95386.6 7379.40   2
   5  -7 -11 86535.9 7378.69   6
   5   7 -10 3276.55 1516.48   2
   5  -7 -10-886.502 2162.17   6
   5   7  -9 83703.3 7027.18   2
   5  -7  -9 90653.8 7839.19   6
   5   7  -8 10742.4 2430.47   2
   5  -7  -8 8679.83 3043.81   6
   5   7  -7 26710.5 4075.34   2
   5  -7  -7 29904.3 4698.46   6
   5   7  -6 106419. 7594.28   2
   5  -7  -6 103466. 8238.70   6
   5   7  -5 1305.80 1199.46   2
   5  -7  -5 3521.55 1487.36   6
   5   7  -4 223214. 10833.3   2
   5  -7  -4 237066. 12166.2   6
  -5  -7   3 4823.22 2075.80   7
   5  -7  -3 2343.19 1360.63   6
   5   7  -3 6238.79 1904.77   2
   5   7  -2 192813. 10016.5   2
  -5  -7   2 197940. 10094.2   7
   5  -7  -2 195706. 11015.3   6
   5   7  -1 11926.4 3008.25   1
  -5  -7   1 17154.0 3355.99   7
   5   7  -1 14541.2 2917.69   2
   5   7   0 188401. 9872.97   2
  -5  -7   0 174615. 9204.96   7
   5   7   1 28794.9 3908.71   2
   5   7   2 87549.8 6863.48   2
   5   7   3 142130. 8844.76   2
  -5  -7  -3 126088. 8282.03   5
  -5  -7  -4 3051.38 2224.85   5
   5   7   4 2556.76 1277.60   2
   5   7   5 36597.4 4627.44   2
  -5  -7  -5 30593.5 4327.35   5
  -5  -7  -6 7523.92 2461.77   5
  -5  -7  -7 124505. 7977.17   5
  -5  -7  -8 77020.0 6086.16   5
  -5  -7  -9 68694.0 5614.25   5
  -5   7  -9 67142.1 5240.68   4
  -5  -7 -10 38449.1 4034.27   5
  -5   7 -10 35409.6 3646.52   4
  -5  -7 -11 36886.7 3641.07   5
  -5  -7 -11 38500.8 3350.45   4
  -5  -7 -12 95432.7 5311.17   5
  -5  -7 -13 13239.6 1813.71   5
  -5  -7 -14 50023.1 2992.55   5
   5   8 -16 2688.03 878.194   2
   5  -8 -16 648.577 1041.01   6
   5   8 -15 280.689 624.620   2
   5  -8 -15-1075.62 1402.22   6
   5   8 -14 2128.53 1104.90   2
   5  -8 -14 3439.52 1688.49   6
   5   8 -13 26.1922 939.490   2
   5  -8 -13-659.218 1563.21   6
   5   8 -12 91304.6 6421.06   2
   5  -8 -12 98191.7 7461.21   6
   5   8 -11 387.537 1229.02   2
   5  -8 -11 5259.60 2155.88   6
   5   8 -10 304179. 12212.7   2
   5  -8 -10 282213. 12985.5   6
   5   8  -9 6782.76 1965.30   2
   5  -8  -9 4890.62 2817.89   6
   5   8  -8 207685. 10238.4   2
   5  -8  -8 205450. 11433.7   6
   5   8  -7 2721.83 1565.33   2
   5  -8  -7 2516.51 1307.41   6
   5   8  -6 318629. 12791.9   2
   5  -8  -6 308853. 14224.4   6
   5  -8  -5 4094.21 2180.24   6
   5   8  -5 6489.70 2175.61   2
   5   8  -4 147079. 8785.27   2
   5  -8  -4 164059. 10365.8   6
   5   8  -3 1774.43 1679.91   2
   5  -8  -3 589.700 2009.65   6
   5   8  -2 54736.8 5277.36   2
   5  -8  -2 59306.8 6436.99   6
   5  -8  -1 8666.27 3101.39   6
  -5  -8  -2 33208.5 4346.98   5
  -5  -8  -3 3184.55 1580.75   5
  -5  -8  -4 34152.9 4545.97   5
  -5  -8  -5 3617.99 2281.51   5
  -5  -8  -6 105730. 7256.62   5
  -5  -8  -7-1960.06 1837.94   5
  -5  -8  -8 48096.1 4712.41   5
  -5  -8  -9-541.496 1080.86   5
  -5  -8 -10 3055.01 1566.75   5
  -5  -8 -11 2119.12 932.116   5
  -5  -8 -12 1899.46 776.439   5
  -5  -8 -13 264.383 299.417   5
   5  -9 -15 3427.14 1636.03   6
   5   9 -14 25489.0 2490.85   2
   5  -9 -14 31394.1 3516.41   6
   5   9 -13 37631.4 3427.51   2
   5  -9 -13 39318.1 4235.67   6
   5   9 -12 37661.7 3614.21   2
   5  -9 -12 39200.3 4476.27   6
   5   9 -11 34648.8 3647.07   2
   5  -9 -11 32580.2 4393.31   6
   5   9 -10 4207.57 1658.46   2
   5  -9 -10 2247.84 1751.04   6
   5   9  -9 50823.5 4654.74   2
   5  -9  -9 57566.2 5929.34   6
   5   9  -8 32437.8 3868.77   2
   5  -9  -8 26479.4 4503.37   6
   5   9  -7 42004.7 4338.61   2
   5  -9  -7 43596.4 5395.90   6
   5  -9  -6 44513.2 5787.40   6
   5  -9  -5 1219.84 2322.85   6
   5  -9  -4 183471. 11009.4   6
   5  -9  -3-2943.00 2393.34   6
   5  -9  -2 132158. 9309.63   6
   5  -9  -1 39329.3 5424.58   6
   5  -9   0 287138. 13532.4   6
  -5  -9  -1 84313.7 6654.22   5
   5  -9   1 68286.1 6897.67   6
  -5  -9  -2 167984. 9180.33   5
  -5  -9  -3 60977.6 5618.10   5
  -5  -9  -4 46486.5 4894.19   5
  -5  -9  -5 100260. 6946.63   5
  -5  -9  -6 928.785 1461.52   5
  -5  -9  -7 54081.1 4860.76   5
  -5  -9  -8 7264.31 2068.48   5
  -5  -9  -9 41183.6 3899.55   5
  -5  -9 -10 67657.5 4535.46   5
  -5  -9 -11 16573.0 2166.38   5
  -5  -9 -12 90417.9 4235.33   5
   5 -10 -14-816.822 916.192   6
   5 -10 -13 160404. 7460.30   6
   5 -10 -12 7496.53 1971.40   6
   5 -10 -11 95970.0 6753.81   6
   5 -10 -10 16388.5 3028.04   6
   5 -10  -9 23778.7 3802.06   6
   5 -10  -8 40614.5 4996.71   6
   5 -10  -7-1156.45 1245.47   6
   5 -10  -6 56997.1 5985.65   6
   5 -10  -5 27414.6 4219.64   6
   5 -10  -4 39725.5 4931.98   6
   5 -10  -3 174692. 10447.8   6
   5 -10  -2 5087.99 2501.98   6
  -5 -10   1 111308. 7021.79   5
   5 -10  -1 120994. 8891.71   6
  -5 -10   0-226.497 1256.12   5
   5 -10   0-1630.73 1838.12   6
  -5 -10  -1 77941.2 5973.87   5
   5 -10   1 81630.0 7063.79   6
  -5 -10  -2 8602.06 2344.41   5
   5 -10   2 5989.24 2216.16   6
  -5 -10  -3 25007.9 3386.74   5
  -5 -10  -4 6223.06 1951.48   5
  -5 -10  -5 3190.95 1829.19   5
  -5 -10  -6 47500.0 4283.28   5
  -5 -10  -7 3927.32 1408.02   5
  -5 -10  -8 7445.71 1614.79   5
  -5 -10  -9 60900.6 4094.11   5
  -5 -10 -10 4009.98 1046.25   5
  -5 -10 -11 39643.1 2719.35   5
   5 -11 -13 81054.3 4602.62   6
   5 -11 -12 2939.33 1289.85   6
   5 -11 -11 142625. 7228.90   6
   5 -11 -10 2988.50 1126.24   6
   5 -11  -9 200256. 9455.95   6
   5 -11  -8 6801.31 2119.20   6
   5 -11  -7 201284. 10227.0   6
   5 -11  -6 13831.8 3109.45   6
   5 -11  -5 25144.2 3886.75   6
   5 -11  -4 1032.44 1301.52   6
  -5 -11   3 12402.3 2020.60   5
   5 -11  -3 17195.1 3240.66   6
  -5 -11   2 1405.94 969.229   5
   5 -11  -2 2177.20 1539.20   6
  -5 -11   1 3599.59 1253.43   5
   5 -11  -1 4538.41 1628.14   6
  -5 -11   0 2216.12 1273.96   5
   5 -11   0 3416.24 1430.68   6
  -5 -11  -1 62727.8 4780.44   5
   5 -11   1 66908.4 5918.75   6
  -5 -11  -2-195.812 1118.60   5
   5 -11   2 1996.80 1557.29   6
  -5 -11  -3 166797. 7666.76   5
   5 -11   3 172533. 8640.25   6
  -5 -11  -4-2300.69 916.758   5
  -5 -11  -5 239091. 8707.09   5
  -5 -11  -6 4148.19 1195.41   5
  -5 -11  -7 196608. 7131.83   5
  -5 -11  -8 2176.57 855.953   5
  -5 -11  -9 152580. 5331.28   5
   5 -12 -11 97362.6 5067.22   6
   5 -12 -10 75239.2 4878.64   6
   5 -12  -9 27629.4 3268.83   6
   5 -12  -8 77938.3 5538.21   6
   5 -12  -7-97.3259 285.893   6
   5 -12  -6 66611.7 5567.52   6
   5 -12  -5 11288.3 2353.29   6
   5 -12  -4 40575.6 4558.58   6
  -5 -12   3 39825.6 3181.75   5
   5 -12  -3 54671.6 5169.80   6
  -5 -12   2 16.8475 843.116   5
   5 -12  -2 1235.40 1182.74   6
  -5 -12   1 55509.5 3954.34   5
   5 -12  -1 67370.0 5605.54   6
  -5 -12   0 19207.3 2402.08   5
   5 -12   0 21330.2 3240.58   6
  -5 -12  -1 42588.4 3508.91   5
   5 -12   1 51983.5 4729.63   6
  -5 -12  -2 13053.0 2092.85   5
   5 -12   2 19166.2 2736.15   6
  -5 -12  -3 45144.5 3341.81   5
   5 -12   3 44157.3 3831.54   6
  -5 -12  -4 40333.2 3097.90   5
  -5 -12  -5 3968.92 1135.76   5
  -5 -12  -6 10198.5 1483.10   5
  -5 -12  -7-373.163 676.644   5
   5 -13  -9 7169.25 1466.49   6
   5 -13  -8 56254.6 3931.55   6
   5 -13  -7 40776.0 3553.97   6
   5 -13  -6 160519. 7227.54   6
   5 -13  -5 19318.3 2621.39   6
   5 -13  -4 197675. 8379.51   6
   5 -13  -3 14732.2 2399.26   6
   5 -13  -2 253765. 9423.85   6
   5 -13  -1 524.000 646.103   6
   5 -13   0 196797. 7946.06   6
   5 -13   1 3368.69 1110.77   6
   5 -13   2 75612.7 4447.32   6
   5 -14  -4 96516.5 4641.60   6
   5 -14  -3 10242.0 1605.92   6
   5 -14  -2 16164.8 1902.42   6
   6   0 -17-224.899 1230.28   2
   6   0 -16 1238.59 798.429   2
   6   0 -15-903.672 1065.15   2
   6   0 -14 39674.6 5057.22   2
   6   0 -13 173.942 1654.19   2
   6   0 -12 71703.9 6949.36   2
   6   0 -11 353.704 1988.30   2
   6   0 -10 110037. 8870.62   2
   6   0  -9 224.237 840.920   2
   6   0  -8 204905. 12039.8   2
   6   0  -7 849.175 2202.32   2
   6   0  -6 175845. 11054.5   2
  -6   0   5 3787.33 1789.47   7
   6   0  -5-993.762 1347.71   2
   6   0  -4 169211. 10694.5   2
  -6   0   4 190526. 10152.5   7
   6   0  -3 342.939 1646.42   2
   6   0  -2 85539.2 7695.60   2
   6   0  -1 1133.32 1689.89   2
   6   0   0 14945.0 2802.10   1
   6   0   0 11270.2 2753.00   2
   6   0   1 2525.83 1232.27   1
   6   0   1-2166.89 2025.87   2
   6   0   2 31568.2 5082.70   2
   6   0   3 4629.94 2510.72   2
   6   0   4 108449. 9398.84   2
   6   0   5 1128.12 1990.81   2
   6   0   6 122504. 9824.88   2
  -6   0  -9 1513.60 1641.90   4
  -6   0 -10 60998.1 5408.07   4
  -6   0 -11-1087.48 774.082   4
  -6   0 -12 20730.2 2768.36   4
  -6   0 -13-18.1917 757.446   4
  -6   0 -14 5243.59 1172.88   4
   6   1 -17 23843.6 3015.51   2
   6  -1 -16 64231.1 4690.92   2
   6   1 -16 85930.9 6154.88   2
   6  -1 -15 1460.36 1264.21   2
   6   1 -15 1842.75 1604.56   2
   6  -1 -14 108200. 7380.23   2
   6   1 -14 102308. 8089.69   2
   6  -1 -13 3232.15 1512.52   2
   6   1 -13 1642.40 1946.26   2
   6  -1 -12 43998.5 5523.29   2
   6   1 -12 31814.1 4983.46   2
   6  -1 -11 18459.5 3601.41   2
   6   1 -11 16235.8 3750.02   2
   6  -1 -10 54592.2 6023.45   2
   6   1 -10 55792.1 6332.22   2
   6  -1  -9 45543.5 5544.78   2
   6   1  -9 32096.9 5317.48   2
   6  -1  -8 929.200 1997.91   2
   6   1  -8 321.797 1601.52   2
   6  -1  -7 57021.7 6435.14   2
   6   1  -7 54415.9 6398.26   2
   6   1  -6 547.195 2585.85   2
   6  -1  -6 996.749 1663.93   2
  -6   1   5 14895.2 2923.45   7
  -6  -1   5 21272.6 3503.06   7
   6  -1  -5 20893.1 3674.39   2
   6   1  -5 17008.2 3543.65   2
   6  -1  -4 74091.4 7211.92   2
   6   1  -4 78984.6 7326.49   2
  -6  -1   4 77756.3 6564.79   7
   6  -1  -3 7161.72 3002.26   2
   6   1  -3 6280.29 2065.15   2
   6  -1  -2 29922.5 4813.21   2
   6   1  -2 37570.2 5371.26   2
   6  -1  -1 4351.30 2588.48   2
   6   1  -1 5197.21 2550.78   2
   6  -1   0 34768.1 5164.07   2
   6   1   0 37390.1 5195.27   2
   6   1   0 34889.6 4286.70   1
   6  -1   1 4745.72 2373.30   2
   6   1   1 1212.30 1832.85   2
   6  -1   2 99825.3 8778.15   2
   6   1   2 92702.3 8152.76   2
  -6  -1  -2 106746. 6917.58   5
  -6  -1  -3 30505.5 3808.88   5
   6  -1   3 23257.8 4542.70   2
   6   1   3 27950.2 4762.79   2
  -6  -1  -4 4324.65 1462.27   5
   6  -1   4 2343.90 3116.87   2
   6   1   4 3158.59 2916.03   2
   6  -1   5 65359.4 7571.95   2
   6   1   5 55275.0 6588.54   2
  -6  -1  -5 66867.1 5400.61   5
   6  -1   6 1221.67 1853.31   2
   6   1   6 906.470 2281.41   2
  -6   1  -8 11338.9 2557.45   4
  -6   1  -9 34432.3 4135.97   4
  -6  -1  -9 30550.6 4154.22   4
  -6   1 -10 77850.4 6020.05   4
  -6  -1 -10 86947.1 6332.61   4
  -6   1 -11 38281.8 4128.84   4
  -6  -1 -11 34152.0 3810.32   4
  -6   1 -12 56928.1 4530.01   4
  -6  -1 -12 52126.1 4321.09   4
  -6   1 -13-1100.53 730.987   4
  -6  -1 -13 1686.64 1042.19   4
  -6   1 -14 85975.7 4093.53   4
   6   2 -17 113828. 6260.64   2
   6   2 -16-705.475 1317.17   2
   6   2 -15 188660. 10252.3   2
   6  -2 -14 9563.14 2074.48   2
   6   2 -14 9439.86 3086.55   2
   6  -2 -13 125567. 7767.75   2
   6   2 -13 123986. 9273.33   2
   6  -2 -12 10571.6 2506.08   2
   6   2 -12 7627.80 2771.73   2
   6  -2 -11 66720.1 6259.62   2
   6   2 -11 64082.3 7162.55   2
   6  -2 -10 47190.0 5535.54   2
   6   2 -10 39626.0 5361.39   2
   6   2  -9 4293.66 2060.07   2
   6  -2  -9 8669.35 2769.09   2
   6  -2  -8 96595.2 7734.56   2
   6   2  -8 76649.0 7604.78   2
   6  -2  -7 31486.5 4653.84   2
   6   2  -7 29432.6 4728.05   2
   6   2  -6 19692.1 3750.60   2
   6  -2  -6 22429.2 3709.56   2
   6  -2  -5 108368. 8352.37   2
   6   2  -5 108418. 8692.73   2
   6  -2  -4 29520.7 4401.66   2
   6   2  -4 31551.0 4650.90   2
  -6  -2   4 41457.3 4808.22   7
   6  -2  -3 250759. 12809.6   2
   6   2  -3 260884. 13247.5   2
  -6  -2   3 278302. 12764.2   7
   6  -2  -2 26974.0 4813.57   2
   6   2  -2 22636.9 4479.09   2
   6  -2  -1 355279. 15517.5   2
   6   2  -1 362936. 15477.2   2
   6  -2   0-345.828 1729.57   2
   6   2   0 2907.20 2300.68   2
   6  -2   1 236989. 13276.2   2
   6   2   1 225835. 12282.6   2
  -6  -2  -2 3187.17 1590.86   5
   6  -2   2-1039.95 2148.50   2
   6   2   2 1593.50 2007.66   2
   6  -2   3 146597. 10862.7   2
   6   2   3 147871. 10284.9   2
  -6  -2  -3 163045. 8737.91   5
  -6  -2  -4 13498.6 2448.36   5
   6  -2   4 10403.0 3350.94   2
   6   2   4 12905.0 3235.66   2
   6  -2   5 111303. 9814.62   2
   6   2   5 101726. 8570.37   2
  -6  -2  -5 113867. 7271.58   5
  -6  -2  -6 25773.4 3595.94   5
   6   2   6 25803.0 4537.58   2
  -6  -2  -7 2060.28 962.636   5
  -6   2  -7 7233.92 2291.53   4
  -6  -2  -8 17014.8 2618.60   5
  -6   2  -8 20034.7 3301.64   4
  -6  -2  -9 547.762 968.793   5
  -6   2  -9 1566.51 1445.30   4
  -6  -2 -10 17547.0 2963.81   4
  -6   2 -10 16514.5 2840.93   4
  -6   2 -11 12035.3 2381.14   4
  -6  -2 -11 11134.6 2246.76   4
  -6   2 -12 1338.31 877.762   4
  -6  -2 -12 2932.29 1412.11   4
  -6   2 -13 34536.6 3142.97   4
  -6  -2 -13 36155.4 3107.59   4
   6   3 -17 96588.2 5675.74   2
   6   3 -16 5547.26 2206.70   2
   6   3 -15 14602.5 3167.47   2
   6   3 -14 10456.7 2779.41   2
   6   3 -13 2777.49 2104.08   2
   6   3 -12 7687.41 3066.63   2
   6  -3 -12 3725.62 1819.77   6
   6   3 -11 55635.2 6759.11   2
   6   3 -10-3260.70 988.349   2
   6   3  -9 31445.0 4991.24   2
   6   3  -8 1297.47 1574.79   2
   6  -3  -8 3425.39 1472.03   2
   6  -3  -7 141159. 9077.93   2
   6   3  -7 131393. 9571.89   2
   6   3  -6 13366.4 3141.32   2
   6  -3  -6 12768.3 2880.32   2
   6  -3  -5 100049. 7646.06   2
   6   3  -5 93024.7 7940.61   2
   6  -3  -4 5868.19 1478.28   2
   6   3  -4 6491.48 2497.24   2
   6  -3  -3 13902.5 3136.85   2
   6   3  -3 14402.9 3120.73   2
   6  -3  -2 14581.6 3527.71   2
   6   3  -2 10067.5 2982.33   2
   6  -3  -1 724.615 2234.94   2
   6   3  -1 2439.90 1742.76   2
   6  -3   0 16116.4 3599.60   2
   6   3   0 21904.2 3843.95   2
   6  -3   1 20337.9 4366.48   2
   6   3   1 16912.2 3895.33   2
   6  -3   2 1372.90 1876.07   2
   6   3   2 750.335 1448.81   2
   6  -3   3 84323.7 8190.69   2
   6   3   3 76046.3 7268.05   2
  -6  -3  -3 103361. 7180.94   5
  -6  -3  -4 7009.98 2035.04   5
   6  -3   4 6258.67 3090.75   2
   6   3   4 7024.64 3020.39   2
   6   3   5 143901. 10036.6   2
  -6  -3  -5 149304. 8366.65   5
  -6   3  -5 163625. 9175.85   4
  -6  -3  -6 7726.20 2059.89   5
   6   3   6 6938.77 2502.71   2
  -6   3  -6 7264.99 1893.28   4
  -6  -3  -7 95310.2 6363.90   5
  -6   3  -7 90821.2 6918.07   4
  -6  -3  -8 3609.24 1484.36   5
  -6   3  -8 3100.36 1333.35   4
  -6  -3  -9 101018. 5933.94   5
  -6   3  -9 107601. 7131.50   4
  -6  -3 -10 2326.26 1291.86   5
  -6   3 -10 4666.74 1567.14   4
  -6  -3 -10 4010.55 1410.14   4
  -6  -3 -11 36043.0 3090.69   5
  -6   3 -11 37957.7 3779.44   4
  -6  -3 -11 35936.1 3650.69   4
  -6   3 -12 9779.40 1885.42   4
  -6  -3 -12 10598.9 1977.65   4
  -6   3 -13 7252.43 1431.61   4
  -6  -3 -13 5057.13 1223.06   4
   6   4 -17 81090.7 5024.64   2
   6   4 -16 11739.5 2523.17   2
   6   4 -15 94036.1 6926.69   2
   6   4 -14 13333.4 3413.30   2
   6   4 -13 79920.1 7259.71   2
   6  -4 -13 75558.3 6101.26   6
   6   4 -12 74012.3 7273.05   2
   6  -4 -12 60724.8 5719.16   6
   6   4 -11 35437.6 5077.76   2
   6  -4 -11 39570.5 4631.44   6
   6   4 -10 96989.4 8351.47   2
   6  -4 -10 79483.9 6667.29   6
   6   4  -9 4552.61 2081.85   2
   6   4  -8 129628. 9677.92   2
   6   4  -7 16442.4 3711.43   2
   6   4  -6 166082. 10667.7   2
   6   4  -5 35600.6 5136.16   2
   6   4  -4 92493.9 7876.48   2
   6   4  -3 47259.4 5382.41   2
   6   4  -2 57493.9 6306.64   2
   6  -4  -1 153092. 9778.87   2
   6   4  -1 142920. 9552.66   2
   6  -4   0 7941.39 2717.74   2
   6   4   0 6949.27 2194.51   2
   6  -4   1 174467. 11272.3   2
   6   4   1 165366. 10279.4   2
   6  -4   2 45479.0 6274.86   2
   6   4   2 38842.4 5079.30   2
  -6  -4  -2 40741.9 4503.07   5
   6  -4   3 84495.6 8070.42   2
   6   4   3 76303.8 7167.68   2
  -6  -4  -3 83444.0 6587.15   5
   6   4   4 51965.0 6135.33   2
  -6  -4  -4 44479.8 4894.25   5
   6   4   5 119180. 8824.41   2
  -6  -4  -5 138634. 8130.70   5
  -6   4  -5 135902. 8102.84   4
   6   4   6 119037. 8764.26   2
  -6  -4  -6 121935. 7512.02   5
  -6   4  -6 116201. 7498.23   4
  -6  -4  -7 2618.64 1310.83   5
  -6   4  -7 2321.05 1199.86   4
  -6  -4  -8 105523. 6479.71   5
  -6   4  -8 114380. 7333.90   4
  -6  -4  -9 633.437 841.421   5
  -6   4  -9 359.390 1211.11   4
  -6  -4 -10 40372.7 3511.13   5
  -6   4 -10 51041.3 4451.65   4
  -6  -4 -10 42033.1 3940.77   4
  -6  -4 -11 11375.8 1703.43   5
  -6   4 -11 12695.3 2063.02   4
  -6  -4 -11 11814.9 2137.52   4
  -6  -4 -12 10386.0 1473.41   5
  -6   4 -12 13042.4 1970.44   4
  -6  -4 -12 13175.3 1902.76   4
   6   5 -16 79819.6 5234.57   2
   6   5 -15 11378.4 2544.65   2
   6   5 -14 146139. 8530.54   2
   6   5 -13 7612.71 2645.06   2
   6  -5 -13 5546.80 2036.26   6
   6   5 -12 135114. 9212.31   2
   6  -5 -12 123397. 8042.15   6
   6   5 -11 11736.1 3178.34   2
   6  -5 -11 5824.97 2665.60   6
   6   5 -10 31460.4 4653.04   2
   6  -5 -10 31484.7 4565.87   6
   6   5  -9 1947.66 2252.27   2
   6  -5  -9-2528.54 1914.48   6
   6   5  -8 62706.5 6619.69   2
   6   5  -7 31082.3 4654.24   2
   6   5  -6 4221.76 1989.54   2
   6   5  -5 39286.6 5182.25   2
   6   5  -4 77317.5 7093.75   2
   6   5  -3 6737.39 2523.86   2
   6   5  -2 143849. 9425.76   2
   6   5  -1 20159.1 3722.55   2
   6   5   0 155301. 9883.13   2
   6   5   1 2933.14 1420.76   2
   6   5   2 95135.4 7725.23   2
  -6  -5  -2 102022. 7234.76   5
  -6  -5  -3 2416.09 1713.25   5
   6   5   3 2787.91 1724.49   2
  -6  -5  -4 17988.4 3126.76   5
   6   5   4 19684.1 3392.65   2
  -6  -5  -5 11884.4 2607.69   5
   6   5   5 6190.28 2578.87   2
  -6  -5  -6-172.270 856.807   5
  -6  -5  -7 16993.8 2745.91   5
  -6   5  -7 17250.0 2802.36   4
  -6  -5  -8 41333.5 4095.83   5
  -6   5  -8 43917.3 4229.98   4
  -6  -5  -9 19097.2 2497.08   5
  -6   5  -9 18172.6 2643.11   4
  -6  -5 -10 55305.4 4017.52   5
  -6   5 -10 54957.0 4217.06   4
  -6  -5 -10 55144.2 4251.00   4
  -6  -5 -11 417.148 437.436   5
  -6   5 -11 2195.17 942.856   4
  -6  -5 -11 803.619 946.195   4
  -6  -5 -12 92055.2 4033.99   5
  -6  -5 -12 104299. 4505.90   4
   6   6 -16 401.367 759.942   2
   6   6 -15 33822.3 3614.95   2
   6   6 -14 21006.0 2989.81   2
   6  -6 -14 21151.4 3139.22   6
   6   6 -13 4387.65 1563.41   2
   6  -6 -13 1663.74 1315.80   6
   6   6 -12 139434. 8633.49   2
   6  -6 -12 123277. 7702.77   6
   6   6 -11 2128.43 2001.38   2
   6  -6 -11 2303.61 1500.74   6
   6   6 -10 253920. 12417.6   2
   6  -6 -10 230467. 11111.5   6
   6   6  -9 18357.7 3656.52   2
   6  -6  -9 9073.98 2170.99   6
   6   6  -8 286070. 13286.8   2
   6  -6  -8 264043. 11982.4   6
   6   6  -7 47342.8 5483.53   2
   6   6  -6 180489. 10446.4   2
   6   6  -5 21721.2 3974.71   2
   6   6  -4 96808.5 7725.12   2
   6   6  -3 19743.3 3897.27   2
   6   6  -2 67984.9 6417.88   2
   6   6  -1 7283.17 2043.31   2
   6   6   0 2992.83 2028.09   2
   6   6   1 3847.33 1741.09   2
  -6  -6  -2 8868.86 2239.77   5
   6   6   2 9151.71 2806.61   2
  -6  -6  -3 13080.8 2852.88   5
   6   6   3 11273.8 2951.70   2
   6   6   4 55126.8 5730.15   2
  -6  -6  -4 62947.2 5551.94   5
  -6  -6  -5 2412.36 1113.35   5
   6   6   5-414.274 773.179   2
  -6  -6  -6 110346. 6993.29   5
  -6  -6  -7 2065.91 1272.09   5
  -6  -6  -8 125212. 6713.69   5
  -6  -6  -9 845.478 943.272   5
  -6  -6 -10 52510.4 3704.08   5
  -6  -6 -10 53350.1 3777.92   4
  -6  -6 -11 9043.03 1418.67   5
  -6  -6 -11 6555.08 1339.48   4
   6   7 -15 13848.2 1949.96   2
   6   7 -14 52450.5 4222.96   2
   6  -7 -14 40725.2 3751.99   6
   6   7 -13 9972.08 2093.97   2
   6  -7 -13 8555.46 2262.73   6
   6   7 -12 40892.1 4322.71   2
   6  -7 -12 39911.1 4345.82   6
   6   7 -11 5952.60 1926.98   2
   6  -7 -11 4500.23 1721.55   6
   6  -7 -10 18769.3 3459.01   6
   6   7 -10 21338.2 3218.50   2
   6   7  -9 73574.4 6368.47   2
   6  -7  -9 73475.6 6313.82   6
   6  -7  -8 1153.58 1149.35   6
   6   7  -8 881.700 1355.22   2
   6   7  -7 36011.8 4494.85   2
   6  -7  -7 32777.4 4319.98   6
   6   7  -6-130.315 1208.67   2
   6   7  -5 69233.0 6469.32   2
   6   7  -4 10696.6 2801.86   2
   6   7  -3 17169.3 3130.88   2
   6   7  -2 5751.71 2012.19   2
   6   7  -1 14104.7 2664.30   2
   6   7   0 9459.56 2627.46   2
   6   7   1 28733.7 3868.15   2
  -6  -7  -1 30819.1 4111.03   5
  -6  -7  -2 5591.75 2508.43   5
   6   7   2 8937.68 2298.08   2
   6   7   3 63246.2 5878.61   2
  -6  -7  -3 56847.7 5075.56   5
  -6  -7  -4 11929.8 2372.37   5
   6   7   4 3866.31 1610.74   2
  -6  -7  -5 93523.8 6445.62   5
  -6  -7  -6 1232.89 949.524   5
  -6  -7  -7 50780.0 4289.61   5
  -6  -7  -8 2544.40 1394.95   5
  -6  -7  -9 45299.1 3572.17   5
  -6  -7  -9 42226.1 3304.10   4
  -6  -7 -10 15377.2 1846.88   5
  -6  -7 -10 12475.2 1574.27   4
  -6  -7 -11 6053.61 1051.96   5
   6  -8 -14 2583.54 1284.67   6
   6   8 -13 89882.7 4998.44   2
   6  -8 -13 92560.2 5492.40   6
   6  -8 -12 485.002 1403.36   6
   6   8 -12 701.761 896.262   2
   6   8 -11 66249.6 5024.53   2
   6  -8 -11 62795.8 5195.07   6
   6  -8 -10 2528.54 1817.39   6
   6   8 -10-61.2633 755.725   2
   6  -8  -9 6866.12 2209.17   6
   6   8  -9 8359.36 2266.27   2
   6  -8  -8 3271.67 1419.74   6
   6   8  -8 1717.97 1284.99   2
   6  -8  -7 12217.7 2518.57   6
   6   8  -7 14500.2 2553.23   2
   6  -8  -6-2153.82 2328.08   6
   6   8  -6 1256.26 1190.46   2
   6   8  -5 50874.2 5053.42   2
   6   8  -4 1595.88 920.393   2
   6   8  -3 242685. 10984.9   2
   6   8  -2 4722.89 2143.37   2
   6   8  -1 314050. 12457.9   2
  -6  -8   0 2786.66 1567.93   5
   6   8   0 3777.90 2011.82   2
   6   8   1 292806. 11858.3   2
  -6  -8  -1 291663. 11680.0   5
  -6  -8  -2 2160.63 1924.79   5
  -6  -8  -3 218268. 9811.13   5
  -6  -8  -4 3250.30 1629.87   5
  -6  -8  -5 115712. 6791.00   5
  -6  -8  -6 714.870 961.140   5
  -6  -8  -7 29695.9 3251.38   5
  -6  -8  -8 5275.60 1484.62   5
  -6  -8  -9 1667.67 688.467   5
  -6  -8 -10-1211.50 618.990   5
   6  -9 -12 16273.5 2223.48   6
   6  -9 -11 17999.3 2637.62   6
   6   9 -11 14431.1 1850.57   2
   6  -9 -10 1261.35 988.216   6
   6   9 -10 180.888 423.934   2
   6   9  -9 66244.1 4718.06   2
   6  -9  -9 66368.4 5453.02   6
   6  -9  -8 6015.67 1804.40   6
   6   9  -8 2243.74 1168.04   2
   6   9  -7 81486.7 5446.83   2
   6  -9  -7 75720.2 6085.82   6
   6   9  -6 4222.11 1542.58   2
   6  -9  -6 4900.52 1751.02   6
   6  -9  -5 50942.1 5057.69   6
  -6  -9   1 1013.10 903.739   5
  -6  -9   0 25313.6 3397.76   5
  -6  -9  -1 1103.16 1590.65   5
  -6  -9  -2 1263.13 1301.12   5
  -6  -9  -3 81514.3 5638.57   5
  -6  -9  -4 856.014 1059.07   5
  -6  -9  -5 62585.6 4656.69   5
  -6  -9  -6 2238.04 1125.39   5
  -6  -9  -7 94401.1 4993.47   5
  -6  -9  -8 18513.3 2227.61   5
  -6  -9  -9 53942.3 3161.18   5
   6 -10 -11 22895.0 2681.91   6
   6 -10 -10 214443. 8118.88   6
   6 -10  -9 14134.3 2499.34   6
   6 -10  -8 194709. 8486.83   6
   6 -10  -7 3318.27 1838.82   6
   6 -10  -6 196684. 8981.82   6
   6 -10  -5 1589.26 919.601   6
   6 -10  -4 140419. 7562.63   6
  -6 -10   3 19040.6 2657.11   5
  -6 -10   2 19568.1 2822.02   5
  -6 -10   1 46407.4 4038.78   5
  -6 -10   0 4960.48 1930.93   5
  -6 -10  -1 48139.1 4094.98   5
  -6 -10  -2 49619.5 4112.89   5
  -6 -10  -3 21472.4 2700.68   5
  -6 -10  -4 65432.6 4339.07   5
  -6 -10  -5 20624.6 2416.10   5
  -6 -10  -6 80337.0 4323.11   5
  -6 -10  -7 4511.25 1112.07   5
   6 -11  -8 11259.5 1985.97   6
  -6 -11   7 2989.92 788.957   5
   6 -11  -7 3470.94 1293.30   6
  -6 -11   6 10185.0 1425.83   5
   6 -11  -6 9921.58 2048.76   6
  -6 -11   5 1207.78 802.288   5
   6 -11  -5-257.180 658.230   6
  -6 -11   4 29941.7 2721.41   5
   6 -11  -4 29271.2 3002.49   6
  -6 -11   3 3173.17 919.131   5
  -6 -11   2 53445.9 3755.41   5
  -6 -11   1 722.302 423.321   5
  -6 -11   0 91730.7 4866.29   5
  -6 -11  -1 12323.6 1927.12   5
  -6 -11  -2 58959.6 3808.74   5
  -6 -11  -3 2153.89 900.808   5
  -6 -11  -4 54794.5 3288.42   5
  -6 -11  -5 5947.75 1107.17   5
   7   0 -14-719.376 987.880   2
   7   0 -13 57761.3 5046.34   2
   7   0 -12-705.767 1156.94   2
   7   0 -11 36251.8 4625.00   2
   7   0 -10 129.762 1747.56   2
   7   0  -9 49409.8 5728.32   2
   7   0  -8-2018.34 1901.58   2
   7   0  -7 1645.00 1272.33   2
   7   0  -6 146.851 1795.11   2
   7   0  -5 2535.18 1453.78   2
   7   0  -4 1593.99 1648.79   2
   7   0  -3 31184.3 5092.89   2
   7   0  -2-1149.65 1110.69   2
   7   0  -1 190120. 11797.9   2
   7   0   0 399.173 2380.82   2
   7   0   1 106591. 8950.88   2
   7   0   2-92.5059 1629.48   2
   7   0   3 57147.5 6709.44   2
   7   0   4 289.023 1710.65   2
  -7   0  -6-826.713 841.156   4
  -7   0  -7 48.1212 542.043   4
  -7   0  -8-540.786 695.142   4
  -7   0  -9 1443.45 956.465   4
  -7   0 -10 278.349 409.418   4
   7   1 -15 1893.99 1169.04   2
   7   1 -14 85844.3 5838.63   2
   7  -1 -13 3366.67 1304.31   2
   7   1 -13 6190.87 2031.29   2
   7  -1 -12 89898.8 6279.94   2
   7   1 -12 79185.2 6684.22   2
   7  -1 -11 35635.8 4148.35   2
   7   1 -11 37598.1 4937.59   2
   7  -1 -10 36711.0 4561.62   2
   7   1 -10 38355.0 5199.20   2
   7  -1  -9 75345.7 6787.65   2
   7   1  -9 72737.8 7046.85   2
   7  -1  -8 11938.9 2983.89   2
   7   1  -8 13175.7 3325.72   2
   7  -1  -7 98652.4 8214.13   2
   7   1  -7 96662.8 8314.21   2
   7  -1  -6 389.196 1278.44   2
   7   1  -6 301.066 2430.55   2
   7  -1  -5 137923. 9760.35   2
   7   1  -5 141362. 10179.6   2
   7  -1  -4 21021.6 3725.54   2
   7   1  -4 25968.9 4508.57   2
   7  -1  -3 92654.8 8148.45   2
   7   1  -3 94129.2 8166.02   2
   7  -1  -2 10849.9 3258.02   2
   7   1  -2 9088.46 3516.24   2
   7  -1  -1 39169.9 5398.88   2
   7   1  -1 49180.3 6055.79   2
   7   1   0 35422.6 5281.76   2
   7  -1   0 23551.2 4781.49   2
   7  -1   1 37830.5 5355.68   2
   7   1   1 39636.0 5666.98   2
   7  -1   2 58841.5 7018.74   2
   7   1   2 50707.9 6219.03   2
   7  -1   3-1006.97 1410.38   2
   7   1   3-780.375 2000.00   2
   7  -1   4 52538.0 6103.95   2
   7   1   4 47819.7 5866.65   2
  -7   1  -5 9632.80 2067.30   4
  -7   1  -6 13312.1 2494.61   4
  -7  -1  -7 18187.9 2657.63   4
  -7   1  -7 17619.7 2708.15   4
  -7   1  -8 1583.23 910.121   4
  -7  -1  -8 3869.40 1209.19   4
  -7   1  -9 23881.5 2777.01   4
  -7  -1  -9 24201.2 2767.94   4
  -7   1 -10 2966.66 1070.41   4
  -7  -1 -10 3132.64 1022.55   4
   7   2 -15 4050.32 1495.22   2
   7   2 -14 1535.31 1311.56   2
   7   2 -13 14503.3 2916.82   2
   7   2 -12 4037.73 2081.35   2
   7  -2 -11-169.560 505.100   2
   7   2 -11 2057.82 2032.50   2
   7  -2 -10 44936.6 4622.71   2
   7   2 -10 41472.7 5228.55   2
   7  -2  -9 10.9444 2593.36   2
   7   2  -9 6341.63 2090.39   2
   7  -2  -8 101839. 7518.75   2
   7   2  -8 84981.8 7854.55   2
   7  -2  -7 219.997 504.252   2
   7   2  -7 2819.94 1480.88   2
   7  -2  -6 89603.6 7303.85   2
   7   2  -6 77334.9 7729.36   2
   7  -2  -5 14836.8 3387.13   2
   7   2  -5 5946.88 3020.40   2
   7  -2  -4 34176.4 4859.47   2
   7   2  -4 47072.3 5875.20   2
   7  -2  -3 1830.52 1938.25   2
   7   2  -3 860.770 2134.42   2
   7  -2  -2 21901.5 3757.23   2
   7   2  -2 22553.5 4046.70   2
   7  -2  -1 27547.0 4759.29   2
   7   2  -1 27535.6 4481.98   2
  -7  -2   0-592.705 941.083   5
   7  -2   0 519.454 1623.21   2
   7   2   0 14.6763 1872.42   2
  -7  -2  -1 12176.6 2213.74   5
   7  -2   1 13008.1 3291.22   2
   7   2   1 8304.78 2913.33   2
   7  -2   2 62701.3 6796.86   2
   7   2   2 61775.6 6344.32   2
  -7  -2  -2 62025.3 4978.81   5
   7  -2   3 33278.6 4984.53   2
   7   2   3 32745.1 4621.83   2
  -7  -2  -3 36154.0 3714.56   5
  -7   2  -3 37896.5 3888.31   4
   7   2   4 61974.4 6262.82   2
  -7  -2  -4 59242.7 4465.14   5
  -7   2  -4 56557.8 4754.52   4
  -7   2  -5 21568.9 3055.80   4
   7   2   5 19308.5 3754.13   2
  -7   2  -6 99789.1 6120.04   4
  -7   2  -7-548.290 630.644   4
  -7   2  -8 109503. 5828.53   4
  -7  -2  -8 125745. 6388.82   4
  -7   2  -9-1453.38 748.715   4
  -7  -2  -9 176.216 397.176   4
  -7   2 -10 99149.0 4555.76   4
  -7  -2 -10 107746. 4954.32   4
   7   3 -15 13024.1 2136.65   2
   7   3 -14 288938. 10676.7   2
   7   3 -13 8303.82 2267.29   2
   7   3 -12 313553. 13141.4   2
   7   3 -11 3454.73 1777.10   2
   7   3 -10 114492. 8673.49   2
   7   3  -9 6017.98 2386.35   2
   7   3  -8 64647.2 6888.36   2
   7   3  -7 7679.96 2766.37   2
   7  -3  -6 15939.2 2991.64   2
   7   3  -6 11984.0 3161.59   2
   7  -3  -5-784.105 646.177   2
   7   3  -5-995.477 1891.22   2
   7  -3  -4 21082.8 3581.28   2
   7   3  -4 23535.3 4444.80   2
   7  -3  -3 6025.94 2341.06   2
   7   3  -3 6416.46 2387.74   2
   7  -3  -2 66056.2 6849.93   2
   7   3  -2 59326.4 6388.78   2
   7  -3  -1 4540.94 2307.47   2
   7   3  -1 2826.02 2239.78   2
   7  -3   0 68842.1 6994.24   2
   7   3   0 57127.9 6246.39   2
  -7  -3   0 62640.7 5212.25   5
  -7  -3  -1 7834.50 1773.24   5
   7  -3   1 6431.08 2442.79   2
   7   3   1 6791.86 2737.04   2
   7  -3   2 121405. 8964.33   2
   7   3   2 110019. 8444.90   2
  -7  -3  -2 124281. 7208.80   5
  -7  -3  -3 2432.43 1010.71   5
   7   3   3 2348.88 1981.68   2
   7   3   4 40707.3 4982.32   2
  -7  -3  -4 44004.5 3938.73   5
  -7  -3  -5 3736.08 1066.29   5
  -7   3  -5 540.585 464.407   4
  -7  -3  -6 41237.7 3427.44   5
  -7   3  -6 42395.9 3876.64   4
  -7  -3  -7 4168.00 1207.04   5
  -7   3  -7 5150.16 1264.32   4
  -7   3  -8 4857.97 1289.56   4
  -7  -3  -8 4880.95 1238.71   4
  -7   3  -9-297.107 398.607   4
  -7  -3  -9 746.059 685.458   4
  -7  -3 -10 851.320 614.333   4
   7   4 -14 738.385 1204.91   2
   7   4 -13 10524.2 2459.64   2
   7   4 -12 1580.12 1361.37   2
   7   4 -11 32157.4 4395.45   2
   7   4 -10 33773.8 4791.73   2
   7   4  -9 7350.86 2102.02   2
   7   4  -8 67801.3 6771.09   2
   7   4  -7-220.945 1297.44   2
   7   4  -6 40563.3 5066.21   2
   7   4  -5 13577.9 3258.12   2
   7   4  -4 14881.6 3520.47   2
   7   4  -3 53595.4 6179.09   2
   7   4  -2 17649.9 3310.08   2
   7   4  -1 93673.8 7693.48   2
  -7  -4   0-1370.49 1555.38   5
   7  -4   0 154.179 679.593   2
   7   4   0 1333.08 1805.48   2
   7  -4   1 112703. 8007.87   2
   7   4   1 99314.6 7933.76   2
  -7  -4  -1 98438.9 6470.92   5
  -7  -4  -2 2118.83 1430.88   5
   7   4   2 966.825 1501.10   2
   7   4   3 75667.3 6698.15   2
  -7  -4  -3 91200.4 5888.51   5
  -7  -4  -4 26879.0 3324.40   5
   7   4   4 19705.7 3571.38   2
  -7  -4  -5 14601.6 2240.29   5
  -7  -4  -6 68720.6 4377.29   5
  -7  -4  -7 2585.02 1061.36   5
  -7  -4  -8 50165.6 3066.36   5
  -7  -4  -8 72426.2 4501.77   4
  -7  -4  -9 6243.84 1415.50   4
   7   5 -14 4248.83 1218.27   2
   7   5 -13 2120.10 1163.42   2
   7   5 -12 21883.7 3328.11   2
   7   5 -11 64026.7 5663.45   2
   7   5 -10 9771.41 2525.46   2
   7   5  -9 154218. 9247.02   2
   7   5  -8 10020.7 2921.36   2
   7   5  -7 169983. 10079.5   2
   7   5  -6 9257.77 2982.08   2
   7   5  -5 334846. 14119.8   2
   7   5  -4-418.333 2088.17   2
   7   5  -3 185138. 10423.2   2
   7   5  -2 6710.70 2514.59   2
   7   5  -1 79650.3 6878.09   2
  -7  -5   0 7028.34 1852.03   5
   7   5   0 10014.9 2326.48   2
  -7  -5  -1 2100.44 1398.44   5
   7   5   1 571.783 1151.77   2
   7   5   2 26303.5 3893.43   2
  -7  -5  -2 21634.8 3003.21   5
  -7  -5  -3 311.505 697.716   5
   7   5   3 1773.98 1160.29   2
  -7  -5  -4 19779.8 2670.85   5
   7   5   4 16797.1 2910.96   2
  -7  -5  -5 44533.9 3706.88   5
  -7  -5  -6 6174.50 1371.57   5
  -7  -5  -7 32584.8 2827.75   5
  -7  -5  -8 2209.23 720.498   5
  -7  -5  -8 1182.11 819.295   4
  -7  -5  -9 37209.6 2729.14   4
   7   6 -13 46911.8 3665.67   2
   7   6 -12 13850.9 2452.79   2
   7   6 -11 33104.4 3610.34   2
   7   6 -10 11926.6 2321.18   2
   7   6  -9 21506.8 3196.15   2
   7   6  -8 5965.24 1937.85   2
   7   6  -7 9630.37 2294.38   2
   7   6  -6 8410.48 2373.44   2
   7   6  -5 14758.5 2880.08   2
   7   6  -4 4229.99 2152.21   2
   7   6  -3 51475.8 5245.54   2
   7   6  -2 1385.47 1145.36   2
   7   6  -1 59959.4 5671.35   2
  -7  -6   1 63224.7 5122.46   5
  -7  -6   0-1404.04 763.401   5
   7   6   0 325.752 784.414   2
   7   6   1 105613. 7180.81   2
  -7  -6  -1 100303. 6293.33   5
  -7  -6  -2 631.676 943.321   5
   7   6   2 2017.37 1019.29   2
   7   6   3 54700.5 4846.96   2
  -7  -6  -3 60146.4 4562.15   5
  -7  -6  -4 7215.92 1508.72   5
  -7  -6  -5 47306.3 3783.12   5
  -7  -6  -6 2342.35 891.245   5
  -7  -6  -7 7503.93 1295.15   5
  -7  -6  -8 8168.30 1314.65   4
   7   7 -11 31659.1 3075.90   2
   7   7 -10 69009.1 4852.47   2
   7   7  -9 32545.4 3542.21   2
   7   7  -8 37803.7 4067.53   2
   7   7  -7 43824.3 4423.71   2
   7   7  -6 2326.12 1241.52   2
   7   7  -5 80905.7 5956.12   2
   7   7  -4 8381.55 2253.16   2
   7   7  -3 14142.1 2566.93   2
   7   7  -2 61260.9 5270.23   2
  -7  -7   2 62183.8 4927.59   5
   7   7  -1 23527.0 3370.58   2
  -7  -7   1 18128.3 2838.16   5
   7   7   0 58273.3 5039.29   2
  -7  -7   0 60941.3 4851.46   5
  -7  -7  -1 21192.2 2894.26   5
   7   7   1 19634.8 3008.05   2
   7   7   2 55881.3 4728.36   2
  -7  -7  -2 62124.3 4635.53   5
  -7  -7  -3 3229.85 1177.89   5
  -7  -7  -4 30871.7 3052.60   5
  -7  -7  -5 1568.99 802.163   5
  -7  -7  -6 17482.7 1985.32   5
  -7  -7  -7 1250.04 630.630   5
   7   8  -9 3618.29 952.777   2
   7   8  -8 75226.7 4679.87   2
   7   8  -7 3486.17 1034.16   2
   7   8  -6 108213. 5971.21   2
   7   8  -5-536.713 716.202   2
   7   8  -4 58844.9 4553.54   2
  -7  -8   3 225.943 894.786   5
   7   8  -3 3566.29 1414.26   2
   7   8  -2 32547.8 3421.94   2
  -7  -8   2 34376.1 3527.65   5
  -7  -8   1 1473.82 1077.21   5
   7   8  -1-7.24772 616.967   2
  -7  -8   0 2198.38 1140.47   5
  -7  -8  -1 743.436 932.231   5
  -7  -8  -2 40587.5 3603.56   5
  -7  -8  -3 3533.93 1078.88   5
  -7  -8  -4 79104.7 4348.96   5
  -7  -8  -5 268.762 418.565   5
  -7  -8  -6 116289. 4431.29   5
  -7  -9   7 59924.6 3591.23   5
  -7  -9   6 6513.24 1370.79   5
  -7  -9   5 40189.4 3184.58   5
  -7  -9   4 1551.13 766.712   5
  -7  -9   3 52461.2 3820.51   5
  -7  -9   2 29009.9 2817.23   5
  -7  -9   1 8180.07 1693.50   5
  -7  -9   0 33742.1 3035.86   5
  -7  -9  -1 563.032 611.351   5
  -7  -9  -2 92310.0 4631.18   5
  -7  -9  -3 1324.83 715.497   5
  -7  -9  -4 93840.4 4101.09   5
  -7 -10   5 9977.37 1317.46   5
  -7 -10   4 5813.95 1165.22   5
  -7 -10   3 74431.1 3771.65   5
  -7 -10   2 31549.2 2517.66   5
  -7 -10   1 85486.6 4044.69   5
  -7 -10   0 1362.35 760.198   5
  -7 -10  -1 107374. 4238.94   5
   8   0 -10 585.364 503.790   2
   8   0  -9 468.927 842.264   2
   8   0  -8 24571.1 3292.69   2
   8   0  -7 1363.29 1133.35   2
   8   0  -6 47270.7 4950.00   2
   8   0  -5 1027.94 1904.19   2
   8   0  -4 38651.8 4911.19   2
   8   0  -3-1342.91 1288.40   2
   8   0  -2 93158.7 7188.46   2
   8   0  -1-1684.90 2119.10   2
   8   0   0 39375.9 4866.11   2
   8   0   1 428.365 1716.34   2
  -8   0  -2 2227.48 835.201   4
  -8   0  -3-533.825 781.353   4
  -8   0  -4-774.186 414.146   4
   8   1 -10 17098.5 2802.42   2
   8  -1  -9 26538.1 2967.57   2
   8   1  -9 28443.4 3715.91   2
   8  -1  -8 4724.24 1651.72   2
   8   1  -8 7375.11 2430.96   2
   8  -1  -7 33300.4 4214.30   2
   8   1  -7 31844.6 4141.24   2
   8  -1  -6 2530.24 1509.05   2
   8   1  -6 2790.83 1388.71   2
   8  -1  -5 29994.1 3908.32   2
   8   1  -5 26080.8 3821.00   2
   8  -1  -4 12743.6 2976.89   2
   8   1  -4 10798.1 2762.20   2
   8  -1  -3 20920.0 3431.91   2
   8   1  -3 16669.5 3728.28   2
   8  -1  -2 39152.7 4664.78   2
   8   1  -2 44160.9 5194.60   2
   8  -1  -1-872.499 1385.00   2
   8   1  -1 311.464 534.199   2
   8  -1   0 55405.2 5447.75   2
   8   1   0 57692.0 5677.81   2
   8  -1   1 1543.08 1383.62   2
   8   1   1 2412.57 1751.45   2
   8   1   2 101668. 7058.41   2
  -8  -1  -3 1008.79 566.416   4
  -8  -1  -4 65475.1 3867.96   4
  -8  -1  -5 6177.55 1252.15   4
   8   2 -10 2515.85 1030.95   2
   8   2  -9 142458. 7988.54   2
   8   2  -8 545.964 620.395   2
   8   2  -7 32670.2 4252.43   2
   8  -2  -6 7534.82 1877.59   2
   8   2  -6 5753.79 2113.37   2
  -8  -2   5-2054.13 913.110   5
   8  -2  -5 2236.52 1902.30   2
   8   2  -5 2205.86 1592.37   2
   8  -2  -4 1376.41 1336.92   2
   8   2  -4 1271.89 1772.65   2
   8  -2  -3 823.609 1174.49   2
   8   2  -3 881.135 1357.75   2
   8  -2  -2 4435.73 1970.68   2
   8   2  -2 7440.47 2707.02   2
   8  -2  -1 30485.5 3915.92   2
   8   2  -1 36203.4 4760.43   2
   8   2   0 844.178 1482.49   2
   8   2   1 31885.6 4324.51   2
   8   2   2 128.729 517.244   2
  -8  -2  -4-589.671 711.433   4
  -8  -2  -5 3561.72 1021.60   4
   8   3 -10-2041.48 1178.03   2
   8   3  -9 115880. 7054.46   2
   8   3  -8-2231.25 1242.48   2
   8   3  -7 107369. 7312.31   2
   8   3  -6-515.686 1652.83   2
   8   3  -5 150105. 8903.30   2
  -8  -3   5 122147. 5913.82   5
  -8  -3   4 2839.69 1238.92   5
   8   3  -4 2824.52 1738.31   2
   8   3  -3 105496. 7565.30   2
  -8  -3   3 83360.8 4821.62   5
  -8  -3   2 684.243 606.180   5
   8   3  -2 189.702 694.867   2
   8   3  -1 44953.4 4987.36   2
  -8  -3   1 39163.1 3250.79   5
   8   3   0 2732.25 1487.05   2
   8   3   1 3443.91 1698.14   2
   8   3   2 2978.54 1321.90   2
  -8  -3  -4 7692.79 1350.06   4
   8   4 -10-991.433 1118.58   2
   8   4  -9 67747.9 5262.51   2
   8   4  -8 11730.5 2364.50   2
   8   4  -7 25248.8 3373.75   2
   8   4  -6 27295.2 3618.19   2
  -8  -4   5 1905.38 913.069   5
   8   4  -5 7292.73 1909.64   2
   8   4  -4 36893.9 4297.51   2
  -8  -4   4 31067.0 3001.34   5
  -8  -4   3-544.569 722.849   5
   8   4  -3 318.203 1596.83   2
  -8  -4   2 11634.9 1939.77   5
   8   4  -2 10356.8 2366.47   2
  -8  -4   1 1361.05 655.969   5
   8   4  -1 522.847 1399.14   2
   8   4   0 26607.4 3594.90   2
  -8  -4   0 23409.7 2484.35   5
  -8  -4  -1 9610.77 1459.07   5
   8   4   1 10192.2 2188.68   2
  -8  -4  -4 9381.40 1459.04   4
   8   5  -8 14213.0 2243.91   2
   8   5  -7 300.575 356.214   2
  -8  -5   6-207.826 335.841   5
   8   5  -6 597.453 572.551   2
   8   5  -5 31568.7 3749.11   2
  -8  -5   5 28688.9 2750.26   5
   8   5  -4 19279.1 2855.52   2
  -8  -5   4 15713.3 2062.25   5
  -8  -5   3 6377.22 1411.63   5
   8   5  -3 8522.21 2034.87   2
   8   5  -2 97685.6 6308.35   2
  -8  -5   2 85326.4 4676.69   5
  -8  -5   1 9278.58 1602.26   5
   8   5  -1 11422.2 2213.10   2
   8   5   0 159923. 7578.68   2
  -8  -5   0 135816. 5529.93   5
  -8  -5  -1 4919.33 997.613   5
   8   6  -6 50654.9 4039.50   2
  -8  -6   6 42261.9 3069.01   5
  -8  -6   5 454.999 551.061   5
   8   6  -5 1502.38 916.126   2
   8   6  -4 43642.1 3893.11   2
  -8  -6   4 38671.9 3042.00   5
  -8  -6   3-85.1995 282.790   5
   8   6  -3 707.875 680.105   2
   8   6  -2 33799.4 3392.63   2
  -8  -6   2 30454.9 2645.34   5
  -8  -6   1-865.750 489.070   5
   8   6  -1 44.4571 682.522   2
  -8  -6   0 12496.4 1758.56   5
   0   0   0    0.00    0.00   0

TITL IM1704 in P2(1)/n
REM P2(1)/n (#14 in standard setting)
CELL 1.54184   7.005879  14.025340  18.015601  90.0000  97.7113  90.0000
ZERR    3.00   0.000123   0.000264   0.000330   0.0000   0.0016   0.0000
LATT  1
SYMM -x+1/2, y+1/2,-z+1/2
SFAC C H O S Sn
UNIT 84.00 150.00 24.00 6.00 6.00
TREF
HKLF 4
END
;
_shelx_hkl_checksum   17352

